/*---------------------------------------------------------------------------*\
| =========                 |                                                 |
| \\      /  F ield         | OpenFOAM: The Open Source CFD Toolbox           |
|  \\    /   O peration     | Version:  v2006                                 |
|   \\  /    A nd           | Website:  www.openfoam.com                      |
|    \\/     M anipulation  |                                                 |
\*---------------------------------------------------------------------------*/
Build  : _b45f8f6f58-20200629 OPENFOAM=2006
Arch   : "LSB;label=32;scalar=64"
Exec   : pimpleFoam
Date   : Nov 23 2020
Time   : 17:09:28
Host   : marvin-VirtualBox
PID    : 10253
I/O    : uncollated
Case   : /home/marvin/OpenFOAM/marvin-v2006/applications/MyOscillatingRotatingMotion/Case
nProcs : 1
trapFpe: Floating point exception trapping enabled (FOAM_SIGFPE).
fileModificationChecking : Monitoring run-time modified files using timeStampMaster (fileModificationSkew 5, maxFileModificationPolls 20)
allowSystemOperations : Allowing user-supplied system call operations

// * * * * * * * * * * * * * * * * * * * * * * * * * * * * * * * * * * * * * //
Create time

Create mesh for time = 10

Selecting dynamicFvMesh dynamicMotionSolverFvMesh
Selecting motion solver: solidBody
Applying solid body motion to cellZone Circle
Selecting solid-body motion function MyoscillatingRotatingMotion

0.480437
i: 0
Value: 0.480437

0.577347
i: 1
Value: 0.5773470000000001

0.0416312
i: 2
Value: 0.0416312


IST_ALT: 0.480437
E_T_SUMME: 0.5773470000000001
E_T_ALT: 0.0416312
Applying solid body motion to cellZone Circle

PIMPLE: no residual control data found. Calculations will employ 2 corrector loops

Reading field p

Reading field U

Reading/calculating face flux field phi

AMI: Creating addressing and weights between 29 source faces and 29 target faces
AMI: Patch source sum(weights) min:1.002939028598705 max:1.002939028598711 average:1.002939028598708
AMI: Patch target sum(weights) min:1.002939028598705 max:1.002939028598712 average:1.002939028598708
Selecting incompressible transport model Newtonian
Selecting turbulence model type laminar
Selecting laminar stress model Stokes
No MRF models present

No finite volume options present
Constructing face velocity Uf

Courant Number mean: 9.352633002975479 max: 533.5396928712773

Starting time loop

TrimForces TrimForces_Dir:
    rho: rhoInf
    Freestream density (rhoInf) set to 1
    Not including porosity effects

Courant Number mean: 9.352633002975479 max: 533.5396928712773
Time = 10.1

PIMPLE: iteration 1
TARGET 0.5
AVERGAE Y: 1.529958965641689e-311
e_t_SUMME: 0.5773470000000001
IST_alt 0.480437
IST_alt_neu 0
e_t 4.680137867996084e-310
e_t_alt 0.0416312
K_P 0.009999999776482582
K_I 1.899999976158142
K_D 0
P 9.977245065992698e-43
I 9.991258050635946e-43
D 1.253033000388526e+17
Read_Time_Intervall: 12.56637096405029
startTime: 10
amplitude_ 1.46205510031499e-311
AMI: Creating addressing and weights between 29 source faces and 29 target faces
AMI: Patch source sum(weights) min:0.9999999999999999 max:1 average:1
AMI: Patch target sum(weights) min:0.9999999999999999 max:1 average:1
DICPBiCGStab:  Solving for pcorr, Initial residual = 1, Final residual = 0.09744439684710719, No Iterations 10
DICPBiCGStab:  Solving for pcorr, Initial residual = 0.3571416128327512, Final residual = 8.842769907682151e-07, No Iterations 48
time step continuity errors : sum local = 1.543582239148472e-08, global = -4.363275997499647e-09, cumulative = 0.01666171506632687
smoothSolver:  Solving for Ux, Initial residual = 0.008484706433997638, Final residual = 4.009500457060236e-05, No Iterations 4
smoothSolver:  Solving for Uy, Initial residual = 0.01988123213185302, Final residual = 0.000105722726091564, No Iterations 4
DICPBiCGStab:  Solving for p, Initial residual = 0.2152683840040348, Final residual = 0.01909250435906807, No Iterations 13
DICPBiCGStab:  Solving for p, Initial residual = 0.1122763151287125, Final residual = 0.01109067190099397, No Iterations 1
time step continuity errors : sum local = 0.0007916096605078206, global = -8.723286104533376e-05, cumulative = 0.01657448220528154
DICPBiCGStab:  Solving for p, Initial residual = 0.1131380508229955, Final residual = 0.005225733441690653, No Iterations 9
DICPBiCGStab:  Solving for p, Initial residual = 0.04515378361031986, Final residual = 9.473390791726931e-07, No Iterations 36
time step continuity errors : sum local = 3.84809491218164e-08, global = -3.634003678829111e-08, cumulative = 0.01657444586524475
PIMPLE: iteration 2
smoothSolver:  Solving for Ux, Initial residual = 0.09595608593776138, Final residual = 7.646627415215918e-07, No Iterations 20
smoothSolver:  Solving for Uy, Initial residual = 0.269952173430322, Final residual = 7.037234902804757e-07, No Iterations 23
DICPBiCGStab:  Solving for p, Initial residual = 0.5292697324126628, Final residual = 0.05218366597815544, No Iterations 11
DICPBiCGStab:  Solving for p, Initial residual = 0.08348057335965657, Final residual = 0.007972109926685988, No Iterations 4
time step continuity errors : sum local = 0.001319900097006758, global = 0.0003052599148443277, cumulative = 0.01687970578008907
DICPBiCGStab:  Solving for p, Initial residual = 0.1399301638423031, Final residual = 0.01186506296681709, No Iterations 9
DICPBiCGStab:  Solving for p, Initial residual = 0.08855521275821968, Final residual = 8.710963402280368e-07, No Iterations 38
time step continuity errors : sum local = 7.439488996309917e-08, global = 8.212033818233635e-09, cumulative = 0.01687971399212289
ExecutionTime = 0.03 s  ClockTime = 0 s

TrimForces TrimForces_Dir write:


Courant Number mean: 9.402737858522157 max: 657.0538957197587
Time = 10.2

PIMPLE: iteration 1
TARGET 0.5
AVERGAE Y: 1.529958965641689e-311
e_t_SUMME: 0.5773470000000001
IST_alt 0.480437
IST_alt_neu 0
e_t 4.680137867996084e-310
e_t_alt 0.0416312
K_P 0.009999999776482582
K_I 1.899999976158142
K_D 0
P 9.977245065992698e-43
I 9.991258050635946e-43
D 1.253033000388526e+17
Read_Time_Intervall: 12.56637096405029
startTime: 10
amplitude_ 1.46205510031499e-311
AMI: Creating addressing and weights between 29 source faces and 29 target faces
AMI: Patch source sum(weights) min:0.9999999999999999 max:1 average:1
AMI: Patch target sum(weights) min:0.9999999999999999 max:1 average:1
DICPBiCGStab:  Solving for pcorr, Initial residual = 1, Final residual = 0.08744550452457514, No Iterations 6
DICPBiCGStab:  Solving for pcorr, Initial residual = 0.3459790560103713, Final residual = 8.796148890066644e-07, No Iterations 46
time step continuity errors : sum local = 3.706406417956035e-10, global = -5.565885530917766e-11, cumulative = 0.01687971393646404
smoothSolver:  Solving for Ux, Initial residual = 0.05557457666705044, Final residual = 0.0002104047760652732, No Iterations 4
smoothSolver:  Solving for Uy, Initial residual = 0.07794236281803787, Final residual = 0.0004299939377315688, No Iterations 4
DICPBiCGStab:  Solving for p, Initial residual = 0.2787755562254657, Final residual = 0.02740864100670673, No Iterations 4
DICPBiCGStab:  Solving for p, Initial residual = 0.07381758337949225, Final residual = 0.006879199794439486, No Iterations 7
time step continuity errors : sum local = 0.0003558528347864417, global = -0.0003241679288074396, cumulative = 0.01655554600765659
DICPBiCGStab:  Solving for p, Initial residual = 0.1041560817927721, Final residual = 0.009014501853662418, No Iterations 3
DICPBiCGStab:  Solving for p, Initial residual = 0.01727451726327111, Final residual = 5.625441832363315e-07, No Iterations 34
time step continuity errors : sum local = 2.368799230842898e-08, global = -3.623158427220507e-09, cumulative = 0.01655554238449817
PIMPLE: iteration 2
smoothSolver:  Solving for Ux, Initial residual = 0.05821815096857837, Final residual = 4.972845966022385e-07, No Iterations 19
smoothSolver:  Solving for Uy, Initial residual = 0.114697510581978, Final residual = 8.567628444362579e-07, No Iterations 21
DICPBiCGStab:  Solving for p, Initial residual = 0.2902658602557612, Final residual = 0.02410496634513554, No Iterations 3
DICPBiCGStab:  Solving for p, Initial residual = 0.0468371299785318, Final residual = 0.003501939544537893, No Iterations 18
time step continuity errors : sum local = 0.0001341757211991312, global = 4.657940549971291e-06, cumulative = 0.01656020032504814
DICPBiCGStab:  Solving for p, Initial residual = 0.08595959083815988, Final residual = 0.006880661788753708, No Iterations 4
DICPBiCGStab:  Solving for p, Initial residual = 0.01654053725606691, Final residual = 8.545743636779294e-07, No Iterations 31
time step continuity errors : sum local = 4.688374963643385e-08, global = -1.739507695348645e-08, cumulative = 0.01656018292997119
ExecutionTime = 0.05 s  ClockTime = 0 s

TrimForces TrimForces_Dir write:


Courant Number mean: 9.374757890925041 max: 507.5156169642296
Time = 10.3

PIMPLE: iteration 1
TARGET 0.5
AVERGAE Y: 1.529958965641689e-311
e_t_SUMME: 0.5773470000000001
IST_alt 0.480437
IST_alt_neu 0
e_t 4.680137867996084e-310
e_t_alt 0.0416312
K_P 0.009999999776482582
K_I 1.899999976158142
K_D 0
P 9.977245065992698e-43
I 9.991258050635946e-43
D 1.253033000388526e+17
Read_Time_Intervall: 12.56637096405029
startTime: 10
amplitude_ 1.46205510031499e-311
AMI: Creating addressing and weights between 29 source faces and 29 target faces
AMI: Patch source sum(weights) min:0.9999999999999999 max:1 average:1
AMI: Patch target sum(weights) min:0.9999999999999999 max:1 average:1
DICPBiCGStab:  Solving for pcorr, Initial residual = 0.9999999999999565, Final residual = 0.09434724441145537, No Iterations 20
DICPBiCGStab:  Solving for pcorr, Initial residual = 0.06707085432327974, Final residual = 8.948813279546628e-07, No Iterations 45
time step continuity errors : sum local = 7.80955037376689e-13, global = -1.461022261918886e-13, cumulative = 0.01656018292982509
smoothSolver:  Solving for Ux, Initial residual = 0.02230433442707392, Final residual = 8.023562568701903e-05, No Iterations 4
smoothSolver:  Solving for Uy, Initial residual = 0.07100869997281957, Final residual = 0.0003047860887799683, No Iterations 4
DICPBiCGStab:  Solving for p, Initial residual = 0.1598065203480112, Final residual = 0.01462605310341181, No Iterations 3
DICPBiCGStab:  Solving for p, Initial residual = 0.02511824433627029, Final residual = 0.002327890124265553, No Iterations 7
time step continuity errors : sum local = 7.811055788159422e-05, global = -6.06820831784965e-06, cumulative = 0.01655411472150724
DICPBiCGStab:  Solving for p, Initial residual = 0.05363939756727993, Final residual = 0.004249365978984673, No Iterations 2
DICPBiCGStab:  Solving for p, Initial residual = 0.006153511090902459, Final residual = 2.601002757295104e-07, No Iterations 33
time step continuity errors : sum local = 8.557673496242775e-09, global = -6.895451823842782e-09, cumulative = 0.01655410782605541
PIMPLE: iteration 2
smoothSolver:  Solving for Ux, Initial residual = 0.03515566863156896, Final residual = 9.874422362264468e-07, No Iterations 17
smoothSolver:  Solving for Uy, Initial residual = 0.1041509590340303, Final residual = 7.850930754849794e-07, No Iterations 21
DICPBiCGStab:  Solving for p, Initial residual = 0.1446978214067116, Final residual = 0.01432601612962205, No Iterations 3
DICPBiCGStab:  Solving for p, Initial residual = 0.02466291460646025, Final residual = 0.002055649878811548, No Iterations 7
time step continuity errors : sum local = 7.944700088487479e-05, global = 1.671793124763692e-05, cumulative = 0.01657082575730305
DICPBiCGStab:  Solving for p, Initial residual = 0.07074838003470313, Final residual = 0.005992027940666477, No Iterations 4
DICPBiCGStab:  Solving for p, Initial residual = 0.0139518899374916, Final residual = 9.207354690558849e-07, No Iterations 31
time step continuity errors : sum local = 3.431371242737042e-08, global = 1.66845469176513e-08, cumulative = 0.01657084244184997
ExecutionTime = 0.06 s  ClockTime = 0 s

TrimForces TrimForces_Dir write:


Courant Number mean: 9.374842485775496 max: 518.2865659484864
Time = 10.4

PIMPLE: iteration 1
TARGET 0.5
AVERGAE Y: 1.529958965641689e-311
e_t_SUMME: 0.5773470000000001
IST_alt 0.480437
IST_alt_neu 0
e_t 4.680137867996084e-310
e_t_alt 0.0416312
K_P 0.009999999776482582
K_I 1.899999976158142
K_D 0
P 9.977245065992698e-43
I 9.991258050635946e-43
D 1.253033000388526e+17
Read_Time_Intervall: 12.56637096405029
startTime: 10
amplitude_ 1.46205510031499e-311
AMI: Creating addressing and weights between 29 source faces and 29 target faces
AMI: Patch source sum(weights) min:0.9999999999999999 max:1 average:1
AMI: Patch target sum(weights) min:0.9999999999999999 max:1 average:1
DICPBiCGStab:  Solving for pcorr, Initial residual = 0.9999999999999405, Final residual = 0.07834623811740689, No Iterations 23
DICPBiCGStab:  Solving for pcorr, Initial residual = 0.08385667937325073, Final residual = 9.805435780083226e-07, No Iterations 41
time step continuity errors : sum local = 6.862696719005663e-13, global = 7.099682401374263e-14, cumulative = 0.01657084244192096
smoothSolver:  Solving for Ux, Initial residual = 0.01643222219780593, Final residual = 0.0001639927598741312, No Iterations 3
smoothSolver:  Solving for Uy, Initial residual = 0.08283350634818921, Final residual = 0.0002915143656706988, No Iterations 4
DICPBiCGStab:  Solving for p, Initial residual = 0.1109111203695965, Final residual = 0.01105516543406019, No Iterations 2
DICPBiCGStab:  Solving for p, Initial residual = 0.01489464414594246, Final residual = 0.001229421908457137, No Iterations 7
time step continuity errors : sum local = 3.850385713472746e-05, global = -2.09121965972897e-05, cumulative = 0.01654993024532368
DICPBiCGStab:  Solving for p, Initial residual = 0.03524529187935952, Final residual = 0.002500939666214734, No Iterations 2
DICPBiCGStab:  Solving for p, Initial residual = 0.00359616696643441, Final residual = 9.318101012116252e-07, No Iterations 29
time step continuity errors : sum local = 2.845240708080183e-08, global = -7.108780261603347e-09, cumulative = 0.01654992313654341
PIMPLE: iteration 2
smoothSolver:  Solving for Ux, Initial residual = 0.02331077690416823, Final residual = 7.612215384764935e-07, No Iterations 17
smoothSolver:  Solving for Uy, Initial residual = 0.1181402082473643, Final residual = 9.772554066830408e-07, No Iterations 20
DICPBiCGStab:  Solving for p, Initial residual = 0.1047909699649341, Final residual = 0.01042565394839578, No Iterations 3
DICPBiCGStab:  Solving for p, Initial residual = 0.01806453178244621, Final residual = 0.001633013357594526, No Iterations 7
time step continuity errors : sum local = 5.626822274101641e-05, global = 2.491386654569385e-05, cumulative = 0.01657483700308911
DICPBiCGStab:  Solving for p, Initial residual = 0.04420894835281415, Final residual = 0.003874594062360336, No Iterations 4
DICPBiCGStab:  Solving for p, Initial residual = 0.009710926069922977, Final residual = 9.431885434121481e-07, No Iterations 32
time step continuity errors : sum local = 3.234404204702857e-08, global = -2.688548248445578e-09, cumulative = 0.01657483431454086
ExecutionTime = 0.08 s  ClockTime = 0 s

TrimForces TrimForces_Dir write:


Courant Number mean: 9.376124332056948 max: 525.7302078094712
Time = 10.5

PIMPLE: iteration 1
TARGET 0.5
AVERGAE Y: 1.529958965641689e-311
e_t_SUMME: 0.5773470000000001
IST_alt 0.480437
IST_alt_neu 0
e_t 4.680137867996084e-310
e_t_alt 0.0416312
K_P 0.009999999776482582
K_I 1.899999976158142
K_D 0
P 9.977245065992698e-43
I 9.991258050635946e-43
D 1.253033000388526e+17
Read_Time_Intervall: 12.56637096405029
startTime: 10
amplitude_ 1.46205510031499e-311
AMI: Creating addressing and weights between 29 source faces and 29 target faces
AMI: Patch source sum(weights) min:0.9999999999999999 max:1 average:1
AMI: Patch target sum(weights) min:0.9999999999999999 max:1 average:1
DICPBiCGStab:  Solving for pcorr, Initial residual = 0.9999999999999368, Final residual = 0.09998066934642146, No Iterations 12
DICPBiCGStab:  Solving for pcorr, Initial residual = 0.2409659241792112, Final residual = 9.022678677537031e-07, No Iterations 44
time step continuity errors : sum local = 1.222025827976006e-13, global = -6.347145486167008e-14, cumulative = 0.01657483431447739
smoothSolver:  Solving for Ux, Initial residual = 0.01275470465352041, Final residual = 0.000120291974356181, No Iterations 3
smoothSolver:  Solving for Uy, Initial residual = 0.05746684139572064, Final residual = 0.0001592239531470013, No Iterations 4
DICPBiCGStab:  Solving for p, Initial residual = 0.08605103345786065, Final residual = 0.006862504296653104, No Iterations 2
DICPBiCGStab:  Solving for p, Initial residual = 0.009246991538353394, Final residual = 0.0009234702719576646, No Iterations 7
time step continuity errors : sum local = 2.768765109514723e-05, global = -2.220651367101231e-05, cumulative = 0.01655262780080638
DICPBiCGStab:  Solving for p, Initial residual = 0.02579297107849642, Final residual = 0.002537404539695411, No Iterations 1
DICPBiCGStab:  Solving for p, Initial residual = 0.003123237001496465, Final residual = 6.056662375436279e-07, No Iterations 37
time step continuity errors : sum local = 1.790577271617188e-08, global = -1.646354871106073e-10, cumulative = 0.01655262763617089
PIMPLE: iteration 2
smoothSolver:  Solving for Ux, Initial residual = 0.01884010488229857, Final residual = 8.263067710913253e-07, No Iterations 16
smoothSolver:  Solving for Uy, Initial residual = 0.07238891777367047, Final residual = 6.171765696467313e-07, No Iterations 17
DICPBiCGStab:  Solving for p, Initial residual = 0.08199508662263019, Final residual = 0.006980541334990596, No Iterations 3
DICPBiCGStab:  Solving for p, Initial residual = 0.01099425605519982, Final residual = 0.001022424251403898, No Iterations 8
time step continuity errors : sum local = 3.371432535660825e-05, global = 2.735492872131265e-05, cumulative = 0.0165799825648922
DICPBiCGStab:  Solving for p, Initial residual = 0.02726726030717984, Final residual = 0.002581751296521562, No Iterations 4
DICPBiCGStab:  Solving for p, Initial residual = 0.005424287175594909, Final residual = 9.494228690602086e-07, No Iterations 32
time step continuity errors : sum local = 3.193034884587183e-08, global = -7.729006466265898e-10, cumulative = 0.01657998179199156
ExecutionTime = 0.1 s  ClockTime = 0 s

TrimForces TrimForces_Dir write:


Courant Number mean: 9.377828485548184 max: 527.9383486685059
Time = 10.6

PIMPLE: iteration 1
TARGET 0.5
AVERGAE Y: 1.529958965641689e-311
e_t_SUMME: 0.5773470000000001
IST_alt 0.480437
IST_alt_neu 0
e_t 4.680137867996084e-310
e_t_alt 0.0416312
K_P 0.009999999776482582
K_I 1.899999976158142
K_D 0
P 9.977245065992698e-43
I 9.991258050635946e-43
D 1.253033000388526e+17
Read_Time_Intervall: 12.56637096405029
startTime: 10
amplitude_ 1.46205510031499e-311
AMI: Creating addressing and weights between 29 source faces and 29 target faces
AMI: Patch source sum(weights) min:0.9999999999999999 max:1 average:1
AMI: Patch target sum(weights) min:0.9999999999999999 max:1 average:1
DICPBiCGStab:  Solving for pcorr, Initial residual = 0.9999999999999361, Final residual = 0.09558789160934496, No Iterations 9
DICPBiCGStab:  Solving for pcorr, Initial residual = 0.355066492057369, Final residual = 5.833165731863301e-08, No Iterations 50
time step continuity errors : sum local = 5.880292755712866e-15, global = 4.877864331008434e-15, cumulative = 0.01657998179199643
smoothSolver:  Solving for Ux, Initial residual = 0.01112105073807311, Final residual = 9.218984968109287e-05, No Iterations 3
smoothSolver:  Solving for Uy, Initial residual = 0.03479268355675533, Final residual = 0.0001056554000906374, No Iterations 4
DICPBiCGStab:  Solving for p, Initial residual = 0.06881988709459223, Final residual = 0.005996930087408273, No Iterations 1
DICPBiCGStab:  Solving for p, Initial residual = 0.007125688681503797, Final residual = 0.0006460615793667131, No Iterations 14
time step continuity errors : sum local = 1.8746755325737e-05, global = -2.741664402676687e-06, cumulative = 0.01657724012759376
DICPBiCGStab:  Solving for p, Initial residual = 0.02369130853628328, Final residual = 0.002119051386119906, No Iterations 1
DICPBiCGStab:  Solving for p, Initial residual = 0.002575452118753942, Final residual = 9.851161990642738e-07, No Iterations 30
time step continuity errors : sum local = 2.711554642335459e-08, global = -4.024742906391436e-09, cumulative = 0.01657723610285085
PIMPLE: iteration 2
smoothSolver:  Solving for Ux, Initial residual = 0.01613778747189703, Final residual = 6.394232093959462e-07, No Iterations 16
smoothSolver:  Solving for Uy, Initial residual = 0.05060641042317159, Final residual = 7.80803135487644e-07, No Iterations 19
DICPBiCGStab:  Solving for p, Initial residual = 0.06752149930075016, Final residual = 0.006344992816851156, No Iterations 1
DICPBiCGStab:  Solving for p, Initial residual = 0.008148339782436174, Final residual = 0.0008059516919243779, No Iterations 7
time step continuity errors : sum local = 2.599136237484147e-05, global = 7.640563638426962e-08, cumulative = 0.01657731250848724
DICPBiCGStab:  Solving for p, Initial residual = 0.01946940112830163, Final residual = 0.001764683971816929, No Iterations 3
DICPBiCGStab:  Solving for p, Initial residual = 0.00294670410945539, Final residual = 6.071016217566115e-07, No Iterations 30
time step continuity errors : sum local = 1.950988867711189e-08, global = 1.367422754715197e-08, cumulative = 0.01657732618271478
ExecutionTime = 0.11 s  ClockTime = 0 s

TrimForces TrimForces_Dir write:


Courant Number mean: 9.379540607584721 max: 527.8565016227514
Time = 10.7

PIMPLE: iteration 1
TARGET 0.5
AVERGAE Y: 1.529958965641689e-311
e_t_SUMME: 0.5773470000000001
IST_alt 0.480437
IST_alt_neu 0
e_t 4.680137867996084e-310
e_t_alt 0.0416312
K_P 0.009999999776482582
K_I 1.899999976158142
K_D 0
P 9.977245065992698e-43
I 9.991258050635946e-43
D 1.253033000388526e+17
Read_Time_Intervall: 12.56637096405029
startTime: 10
amplitude_ 1.46205510031499e-311
AMI: Creating addressing and weights between 29 source faces and 29 target faces
AMI: Patch source sum(weights) min:0.9999999999999999 max:1 average:1
AMI: Patch target sum(weights) min:0.9999999999999999 max:1 average:1
DICPBiCGStab:  Solving for pcorr, Initial residual = 0.9999999999998953, Final residual = 0.09019688154636402, No Iterations 21
DICPBiCGStab:  Solving for pcorr, Initial residual = 0.06080311130780845, Final residual = 8.381341609853011e-07, No Iterations 45
time step continuity errors : sum local = 4.311629188922977e-13, global = 8.481769155116984e-14, cumulative = 0.0165773261827996
smoothSolver:  Solving for Ux, Initial residual = 0.007617643835676012, Final residual = 7.319721346277301e-05, No Iterations 3
smoothSolver:  Solving for Uy, Initial residual = 0.02769323836678407, Final residual = 7.245820067703025e-05, No Iterations 4
DICPBiCGStab:  Solving for p, Initial residual = 0.0663228060533806, Final residual = 0.004475475038407597, No Iterations 1
DICPBiCGStab:  Solving for p, Initial residual = 0.006091717660348763, Final residual = 0.0005872135589011522, No Iterations 4
time step continuity errors : sum local = 1.619912641865505e-05, global = -1.966458020693336e-06, cumulative = 0.0165753597247789
DICPBiCGStab:  Solving for p, Initial residual = 0.02089448918828247, Final residual = 0.001473478609579714, No Iterations 1
DICPBiCGStab:  Solving for p, Initial residual = 0.001916957531640096, Final residual = 8.694024604706301e-07, No Iterations 31
time step continuity errors : sum local = 2.391659040565603e-08, global = -6.093108033075508e-10, cumulative = 0.0165753591154681
PIMPLE: iteration 2
smoothSolver:  Solving for Ux, Initial residual = 0.01155470168900498, Final residual = 9.812569386860146e-07, No Iterations 15
smoothSolver:  Solving for Uy, Initial residual = 0.03999832848763619, Final residual = 8.229168799645634e-07, No Iterations 19
DICPBiCGStab:  Solving for p, Initial residual = 0.06063882781308316, Final residual = 0.004346853029526036, No Iterations 1
DICPBiCGStab:  Solving for p, Initial residual = 0.006051897919785272, Final residual = 0.0005967688726072435, No Iterations 8
time step continuity errors : sum local = 1.874624951539457e-05, global = 1.259871388905068e-05, cumulative = 0.01658795782935715
DICPBiCGStab:  Solving for p, Initial residual = 0.01622947942450589, Final residual = 0.001455054665917141, No Iterations 3
DICPBiCGStab:  Solving for p, Initial residual = 0.002458854821293886, Final residual = 8.035885408038819e-07, No Iterations 27
time step continuity errors : sum local = 2.578170880380541e-08, global = 9.778766189159817e-09, cumulative = 0.01658796760812334
ExecutionTime = 0.13 s  ClockTime = 0 s

TrimForces TrimForces_Dir write:


Courant Number mean: 9.380994303981803 max: 528.4513334193001
Time = 10.8

PIMPLE: iteration 1
TARGET 0.5
AVERGAE Y: 1.529958965641689e-311
e_t_SUMME: 0.5773470000000001
IST_alt 0.480437
IST_alt_neu 0
e_t 4.680137867996084e-310
e_t_alt 0.0416312
K_P 0.009999999776482582
K_I 1.899999976158142
K_D 0
P 9.977245065992698e-43
I 9.991258050635946e-43
D 1.253033000388526e+17
Read_Time_Intervall: 12.56637096405029
startTime: 10
amplitude_ 1.46205510031499e-311
AMI: Creating addressing and weights between 29 source faces and 29 target faces
AMI: Patch source sum(weights) min:0.9999999999999999 max:1 average:1
AMI: Patch target sum(weights) min:0.9999999999999999 max:1 average:1
DICPBiCGStab:  Solving for pcorr, Initial residual = 0.9999999999999207, Final residual = 0.09978181020738046, No Iterations 17
DICPBiCGStab:  Solving for pcorr, Initial residual = 0.0937614373673489, Final residual = 8.722875539775965e-07, No Iterations 45
time step continuity errors : sum local = 2.879824133417292e-13, global = -3.987111220944453e-14, cumulative = 0.01658796760808347
smoothSolver:  Solving for Ux, Initial residual = 0.006170797572567457, Final residual = 6.315629494734468e-05, No Iterations 3
smoothSolver:  Solving for Uy, Initial residual = 0.0212581216115586, Final residual = 6.330764844658054e-05, No Iterations 4
DICPBiCGStab:  Solving for p, Initial residual = 0.06393213114613712, Final residual = 0.004517667577696761, No Iterations 1
DICPBiCGStab:  Solving for p, Initial residual = 0.005923421754911905, Final residual = 0.0005867376301314087, No Iterations 13
time step continuity errors : sum local = 1.631266687542116e-05, global = -1.600927257793338e-05, cumulative = 0.01657195833550554
DICPBiCGStab:  Solving for p, Initial residual = 0.02081873714883054, Final residual = 0.001838775132985737, No Iterations 1
DICPBiCGStab:  Solving for p, Initial residual = 0.002325441180328139, Final residual = 9.745611597752897e-07, No Iterations 30
time step continuity errors : sum local = 2.624418539685437e-08, global = -5.27135993152403e-09, cumulative = 0.01657195306414561
PIMPLE: iteration 2
smoothSolver:  Solving for Ux, Initial residual = 0.009211683816432229, Final residual = 9.073113307589603e-07, No Iterations 15
smoothSolver:  Solving for Uy, Initial residual = 0.0284153301821626, Final residual = 7.02525403658712e-07, No Iterations 19
DICPBiCGStab:  Solving for p, Initial residual = 0.0577980914948738, Final residual = 0.005400979400608414, No Iterations 1
DICPBiCGStab:  Solving for p, Initial residual = 0.007390577683737532, Final residual = 0.0006232626782868126, No Iterations 17
time step continuity errors : sum local = 1.93063054735004e-05, global = 4.682641159995322e-06, cumulative = 0.0165766357053056
DICPBiCGStab:  Solving for p, Initial residual = 0.01749614489083023, Final residual = 0.001517475649645257, No Iterations 3
DICPBiCGStab:  Solving for p, Initial residual = 0.002763214172217992, Final residual = 7.557256875632652e-07, No Iterations 30
time step continuity errors : sum local = 2.455186507108162e-08, global = -4.834290751545367e-09, cumulative = 0.01657663087101485
ExecutionTime = 0.14 s  ClockTime = 0 s

TrimForces TrimForces_Dir write:


Courant Number mean: 9.382287385097328 max: 548.2809860560519
Time = 10.9

PIMPLE: iteration 1
TARGET 0.5
AVERGAE Y: 1.529958965641689e-311
e_t_SUMME: 0.5773470000000001
IST_alt 0.480437
IST_alt_neu 0
e_t 4.680137867996084e-310
e_t_alt 0.0416312
K_P 0.009999999776482582
K_I 1.899999976158142
K_D 0
P 9.977245065992698e-43
I 9.991258050635946e-43
D 1.253033000388526e+17
Read_Time_Intervall: 12.56637096405029
startTime: 10
amplitude_ 1.46205510031499e-311
AMI: Creating addressing and weights between 29 source faces and 29 target faces
AMI: Patch source sum(weights) min:0.9999999999999999 max:1 average:1
AMI: Patch target sum(weights) min:0.9999999999999999 max:1 average:1
DICPBiCGStab:  Solving for pcorr, Initial residual = 0.9999999999999168, Final residual = 0.09635455107755042, No Iterations 18
DICPBiCGStab:  Solving for pcorr, Initial residual = 0.1360837761806425, Final residual = 8.625465858146579e-07, No Iterations 47
time step continuity errors : sum local = 1.22940397016622e-13, global = -1.552484051219281e-14, cumulative = 0.01657663087099932
smoothSolver:  Solving for Ux, Initial residual = 0.005011587041725516, Final residual = 6.111879078700603e-05, No Iterations 3
smoothSolver:  Solving for Uy, Initial residual = 0.01621893137523704, Final residual = 6.033510316406758e-05, No Iterations 4
DICPBiCGStab:  Solving for p, Initial residual = 0.06312532210248166, Final residual = 0.00440711907142241, No Iterations 1
DICPBiCGStab:  Solving for p, Initial residual = 0.005806838332168428, Final residual = 0.0005720339508309505, No Iterations 6
time step continuity errors : sum local = 1.570322208785323e-05, global = -1.318203390327382e-05, cumulative = 0.01656344883709605
DICPBiCGStab:  Solving for p, Initial residual = 0.01938416953195337, Final residual = 0.001447519439647817, No Iterations 1
DICPBiCGStab:  Solving for p, Initial residual = 0.001908937717234085, Final residual = 7.275480949659991e-07, No Iterations 36
time step continuity errors : sum local = 1.967238667863598e-08, global = -1.528836332830187e-09, cumulative = 0.01656344730825972
PIMPLE: iteration 2
smoothSolver:  Solving for Ux, Initial residual = 0.00773518631663039, Final residual = 6.257928725035541e-07, No Iterations 16
smoothSolver:  Solving for Uy, Initial residual = 0.02168825369596533, Final residual = 5.777703722522355e-07, No Iterations 19
DICPBiCGStab:  Solving for p, Initial residual = 0.05395945905708616, Final residual = 0.004108427158415271, No Iterations 1
DICPBiCGStab:  Solving for p, Initial residual = 0.006029582478811629, Final residual = 0.0005686674343986907, No Iterations 14
time step continuity errors : sum local = 1.742999670615507e-05, global = 1.27493073099824e-05, cumulative = 0.0165761966155697
DICPBiCGStab:  Solving for p, Initial residual = 0.01535502331027794, Final residual = 0.001413027061189186, No Iterations 3
DICPBiCGStab:  Solving for p, Initial residual = 0.00257378064260585, Final residual = 9.38775318655245e-07, No Iterations 33
time step continuity errors : sum local = 3.049296376303627e-08, global = 7.337784006970686e-10, cumulative = 0.0165761973493481
ExecutionTime = 0.16 s  ClockTime = 0 s

TrimForces TrimForces_Dir write:


Courant Number mean: 9.383227775932601 max: 572.5382901941612
Time = 11

PIMPLE: iteration 1
TARGET 0.5
AVERGAE Y: 1.529958965641689e-311
e_t_SUMME: 0.5773470000000001
IST_alt 0.480437
IST_alt_neu 0
e_t 4.680137867996084e-310
e_t_alt 0.0416312
K_P 0.009999999776482582
K_I 1.899999976158142
K_D 0
P 9.977245065992698e-43
I 9.991258050635946e-43
D 1.253033000388526e+17
Read_Time_Intervall: 12.56637096405029
startTime: 10
amplitude_ 1.46205510031499e-311
AMI: Creating addressing and weights between 29 source faces and 29 target faces
AMI: Patch source sum(weights) min:0.9999999999999999 max:1 average:1
AMI: Patch target sum(weights) min:0.9999999999999999 max:1 average:1
DICPBiCGStab:  Solving for pcorr, Initial residual = 0.9999999999999331, Final residual = 0.08805429885345939, No Iterations 8
DICPBiCGStab:  Solving for pcorr, Initial residual = 0.3950826222041608, Final residual = 8.725643475506999e-07, No Iterations 48
time step continuity errors : sum local = 6.729213519837794e-14, global = 6.150992562528739e-14, cumulative = 0.01657619734940961
smoothSolver:  Solving for Ux, Initial residual = 0.004516782856154106, Final residual = 5.370807312717333e-05, No Iterations 3
smoothSolver:  Solving for Uy, Initial residual = 0.01270744557268019, Final residual = 5.318400016032238e-05, No Iterations 4
DICPBiCGStab:  Solving for p, Initial residual = 0.06264671012301255, Final residual = 0.004423671228915261, No Iterations 1
DICPBiCGStab:  Solving for p, Initial residual = 0.005812617046958225, Final residual = 0.0005760836712482334, No Iterations 16
time step continuity errors : sum local = 1.582231448664533e-05, global = 6.603563877204862e-06, cumulative = 0.01658280091328682
DICPBiCGStab:  Solving for p, Initial residual = 0.02068955849498452, Final residual = 0.001488023683516308, No Iterations 1
DICPBiCGStab:  Solving for p, Initial residual = 0.001959558684140464, Final residual = 9.124893364707527e-07, No Iterations 34
time step continuity errors : sum local = 2.389159858642472e-08, global = 1.490859533259346e-08, cumulative = 0.01658281582188215
PIMPLE: iteration 2
smoothSolver:  Solving for Ux, Initial residual = 0.005913271545477041, Final residual = 8.602030502487573e-07, No Iterations 15
smoothSolver:  Solving for Uy, Initial residual = 0.01736165713414215, Final residual = 7.117706747861366e-07, No Iterations 18
DICPBiCGStab:  Solving for p, Initial residual = 0.05014179510519794, Final residual = 0.004334642799587137, No Iterations 1
DICPBiCGStab:  Solving for p, Initial residual = 0.006113269625798822, Final residual = 0.0005475447021876239, No Iterations 6
time step continuity errors : sum local = 1.719624681261449e-05, global = -3.296276215963627e-06, cumulative = 0.01657951954566619
DICPBiCGStab:  Solving for p, Initial residual = 0.01404837435167027, Final residual = 0.001081856040020823, No Iterations 3
DICPBiCGStab:  Solving for p, Initial residual = 0.002177143345723238, Final residual = 8.812982198391162e-07, No Iterations 28
time step continuity errors : sum local = 2.779059428762765e-08, global = 9.315283103670558e-09, cumulative = 0.01657952886094929
ExecutionTime = 0.17 s  ClockTime = 1 s

TrimForces TrimForces_Dir write:


Courant Number mean: 9.384178185947979 max: 586.3065191269101
Time = 11.1

PIMPLE: iteration 1
TARGET 0.5
AVERGAE Y: 1.529958965641689e-311
e_t_SUMME: 0.5773470000000001
IST_alt 0.480437
IST_alt_neu 0
e_t 4.680137867996084e-310
e_t_alt 0.0416312
K_P 0.009999999776482582
K_I 1.899999976158142
K_D 0
P 9.977245065992698e-43
I 9.991258050635946e-43
D 1.253033000388526e+17
Read_Time_Intervall: 12.56637096405029
startTime: 10
amplitude_ 1.46205510031499e-311
AMI: Creating addressing and weights between 29 source faces and 29 target faces
AMI: Patch source sum(weights) min:0.9999999999999999 max:1 average:1
AMI: Patch target sum(weights) min:0.9999999999999999 max:1 average:1
DICPBiCGStab:  Solving for pcorr, Initial residual = 0.9999999999999265, Final residual = 0.07663738848111447, No Iterations 17
DICPBiCGStab:  Solving for pcorr, Initial residual = 0.06171361965029743, Final residual = 6.999007015773005e-07, No Iterations 39
time step continuity errors : sum local = 4.116270338996832e-13, global = 1.066063617539446e-13, cumulative = 0.0165795288610559
smoothSolver:  Solving for Ux, Initial residual = 0.003637822764298327, Final residual = 3.845157959696886e-05, No Iterations 3
smoothSolver:  Solving for Uy, Initial residual = 0.01021301434158813, Final residual = 4.247985076724411e-05, No Iterations 4
DICPBiCGStab:  Solving for p, Initial residual = 0.06204629346924275, Final residual = 0.00390573222872426, No Iterations 1
DICPBiCGStab:  Solving for p, Initial residual = 0.005337068394259644, Final residual = 0.0005250102226110752, No Iterations 5
time step continuity errors : sum local = 1.4292526707398e-05, global = -1.967160982813344e-06, cumulative = 0.01657756170007308
DICPBiCGStab:  Solving for p, Initial residual = 0.01867084768489869, Final residual = 0.001299338749578715, No Iterations 1
DICPBiCGStab:  Solving for p, Initial residual = 0.001752357419499248, Final residual = 7.520541012332331e-07, No Iterations 37
time step continuity errors : sum local = 2.036400102961751e-08, global = 2.624463365638951e-09, cumulative = 0.01657756432453645
PIMPLE: iteration 2
smoothSolver:  Solving for Ux, Initial residual = 0.005358585246248801, Final residual = 7.550162643860263e-07, No Iterations 15
smoothSolver:  Solving for Uy, Initial residual = 0.0145246233531389, Final residual = 6.668611024781411e-07, No Iterations 18
DICPBiCGStab:  Solving for p, Initial residual = 0.04971526715206963, Final residual = 0.003759118587697093, No Iterations 1
DICPBiCGStab:  Solving for p, Initial residual = 0.005419548952279549, Final residual = 0.0005414868196911522, No Iterations 10
time step continuity errors : sum local = 1.684993290634892e-05, global = 1.512033399322195e-05, cumulative = 0.01659268465852967
DICPBiCGStab:  Solving for p, Initial residual = 0.01258064489689037, Final residual = 0.001244767180779619, No Iterations 3
DICPBiCGStab:  Solving for p, Initial residual = 0.002174361697623136, Final residual = 7.852064366254109e-07, No Iterations 33
time step continuity errors : sum local = 2.51779278733706e-08, global = -2.313685490509155e-09, cumulative = 0.01659268234484418
ExecutionTime = 0.19 s  ClockTime = 1 s

TrimForces TrimForces_Dir write:


Courant Number mean: 9.384852501224115 max: 599.896128523308
Time = 11.2

PIMPLE: iteration 1
TARGET 0.5
AVERGAE Y: 1.529958965641689e-311
e_t_SUMME: 0.5773470000000001
IST_alt 0.480437
IST_alt_neu 0
e_t 4.680137867996084e-310
e_t_alt 0.0416312
K_P 0.009999999776482582
K_I 1.899999976158142
K_D 0
P 9.977245065992698e-43
I 9.991258050635946e-43
D 1.253033000388526e+17
Read_Time_Intervall: 12.56637096405029
startTime: 10
amplitude_ 1.46205510031499e-311
AMI: Creating addressing and weights between 29 source faces and 29 target faces
AMI: Patch source sum(weights) min:0.9999999999999999 max:1 average:1
AMI: Patch target sum(weights) min:0.9999999999999999 max:1 average:1
DICPBiCGStab:  Solving for pcorr, Initial residual = 0.9999999999999188, Final residual = 0.0975243239202738, No Iterations 12
DICPBiCGStab:  Solving for pcorr, Initial residual = 0.2479543268140538, Final residual = 9.953116816544826e-07, No Iterations 46
time step continuity errors : sum local = 1.022208228638834e-13, global = 4.419092182583295e-17, cumulative = 0.01659268234484423
smoothSolver:  Solving for Ux, Initial residual = 0.003812511162834846, Final residual = 4.009302828740064e-05, No Iterations 3
smoothSolver:  Solving for Uy, Initial residual = 0.01002355800958176, Final residual = 4.309738916491545e-05, No Iterations 4
DICPBiCGStab:  Solving for p, Initial residual = 0.06083629863343074, Final residual = 0.0039363049207211, No Iterations 1
DICPBiCGStab:  Solving for p, Initial residual = 0.005339732861013808, Final residual = 0.0005132669150281729, No Iterations 14
time step continuity errors : sum local = 1.421543093448182e-05, global = -8.029904895327769e-06, cumulative = 0.0165846524399489
DICPBiCGStab:  Solving for p, Initial residual = 0.01912005457215015, Final residual = 0.001545334459880912, No Iterations 1
DICPBiCGStab:  Solving for p, Initial residual = 0.002039665631784453, Final residual = 9.433035432190523e-07, No Iterations 32
time step continuity errors : sum local = 2.533059422199755e-08, global = -1.264062950474832e-10, cumulative = 0.0165846523135426
PIMPLE: iteration 2
smoothSolver:  Solving for Ux, Initial residual = 0.005167545718748091, Final residual = 7.65306314988872e-07, No Iterations 15
smoothSolver:  Solving for Uy, Initial residual = 0.01431293687904125, Final residual = 5.549855269112659e-07, No Iterations 18
DICPBiCGStab:  Solving for p, Initial residual = 0.04947889200206866, Final residual = 0.004106935351802106, No Iterations 1
DICPBiCGStab:  Solving for p, Initial residual = 0.005692764064867475, Final residual = 0.0003816092827728081, No Iterations 19
time step continuity errors : sum local = 1.193095010606829e-05, global = -2.481779855960565e-06, cumulative = 0.01658217053368664
DICPBiCGStab:  Solving for p, Initial residual = 0.01301126736921701, Final residual = 0.001073246386214201, No Iterations 3
DICPBiCGStab:  Solving for p, Initial residual = 0.001961544061442886, Final residual = 9.858253191833517e-07, No Iterations 28
time step continuity errors : sum local = 3.171347913325997e-08, global = -8.783580090074214e-09, cumulative = 0.01658216175010655
ExecutionTime = 0.21 s  ClockTime = 1 s

TrimForces TrimForces_Dir write:


Courant Number mean: 9.385253613744871 max: 605.5731361946873
Time = 11.3

PIMPLE: iteration 1
TARGET 0.5
AVERGAE Y: 1.529958965641689e-311
e_t_SUMME: 0.5773470000000001
IST_alt 0.480437
IST_alt_neu 0
e_t 4.680137867996084e-310
e_t_alt 0.0416312
K_P 0.009999999776482582
K_I 1.899999976158142
K_D 0
P 9.977245065992698e-43
I 9.991258050635946e-43
D 1.253033000388526e+17
Read_Time_Intervall: 12.56637096405029
startTime: 10
amplitude_ 1.46205510031499e-311
AMI: Creating addressing and weights between 29 source faces and 29 target faces
AMI: Patch source sum(weights) min:0.9999999999999999 max:1 average:1
AMI: Patch target sum(weights) min:0.9999999999999999 max:1 average:1
DICPBiCGStab:  Solving for pcorr, Initial residual = 0.9999999999999356, Final residual = 0.09464645813518867, No Iterations 22
DICPBiCGStab:  Solving for pcorr, Initial residual = 0.08830778048325484, Final residual = 8.709000811886252e-07, No Iterations 48
time step continuity errors : sum local = 3.284652812420494e-13, global = -8.844187593982041e-15, cumulative = 0.01658216175009771
smoothSolver:  Solving for Ux, Initial residual = 0.002876185011388005, Final residual = 3.304671337497144e-05, No Iterations 3
smoothSolver:  Solving for Uy, Initial residual = 0.008574371429150081, Final residual = 3.43701001499369e-05, No Iterations 4
DICPBiCGStab:  Solving for p, Initial residual = 0.06159350752099203, Final residual = 0.003642184984461421, No Iterations 1
DICPBiCGStab:  Solving for p, Initial residual = 0.005150536717165348, Final residual = 0.0005109109487519577, No Iterations 4
time step continuity errors : sum local = 1.393412443139464e-05, global = -1.883274966225142e-07, cumulative = 0.01658197342260109
DICPBiCGStab:  Solving for p, Initial residual = 0.01855933918826447, Final residual = 0.001236153119434543, No Iterations 1
DICPBiCGStab:  Solving for p, Initial residual = 0.001768353940605809, Final residual = 5.927330771656719e-07, No Iterations 31
time step continuity errors : sum local = 1.612453006482702e-08, global = -3.566861338201679e-09, cumulative = 0.01658196985573975
PIMPLE: iteration 2
smoothSolver:  Solving for Ux, Initial residual = 0.004316487962337381, Final residual = 8.879625733001785e-07, No Iterations 15
smoothSolver:  Solving for Uy, Initial residual = 0.01313790475153767, Final residual = 6.650061889633452e-07, No Iterations 18
DICPBiCGStab:  Solving for p, Initial residual = 0.04930487833163333, Final residual = 0.003730049015065267, No Iterations 1
DICPBiCGStab:  Solving for p, Initial residual = 0.005304400883210485, Final residual = 0.0005148876664956176, No Iterations 7
time step continuity errors : sum local = 1.610811515649523e-05, global = 8.492714961898846e-06, cumulative = 0.01659046257070165
DICPBiCGStab:  Solving for p, Initial residual = 0.0125536468403912, Final residual = 0.001045425401283011, No Iterations 3
DICPBiCGStab:  Solving for p, Initial residual = 0.001948617359400185, Final residual = 7.493588009126327e-07, No Iterations 28
time step continuity errors : sum local = 2.382558726311974e-08, global = 1.317796768573262e-08, cumulative = 0.01659047574866934
ExecutionTime = 0.22 s  ClockTime = 1 s

TrimForces TrimForces_Dir write:


Courant Number mean: 9.385476713207945 max: 608.4211763892298
Time = 11.4

PIMPLE: iteration 1
TARGET 0.5
AVERGAE Y: 1.529958965641689e-311
e_t_SUMME: 0.5773470000000001
IST_alt 0.480437
IST_alt_neu 0
e_t 4.680137867996084e-310
e_t_alt 0.0416312
K_P 0.009999999776482582
K_I 1.899999976158142
K_D 0
P 9.977245065992698e-43
I 9.991258050635946e-43
D 1.253033000388526e+17
Read_Time_Intervall: 12.56637096405029
startTime: 10
amplitude_ 1.46205510031499e-311
AMI: Creating addressing and weights between 29 source faces and 29 target faces
AMI: Patch source sum(weights) min:0.9999999999999999 max:1 average:1
AMI: Patch target sum(weights) min:0.9999999999999999 max:1 average:1
DICPBiCGStab:  Solving for pcorr, Initial residual = 0.9999999999999143, Final residual = 0.0995331989786559, No Iterations 20
DICPBiCGStab:  Solving for pcorr, Initial residual = 0.07121842177147214, Final residual = 1.670131052098094e-07, No Iterations 48
time step continuity errors : sum local = 9.295951010263438e-14, global = 1.322200117565189e-14, cumulative = 0.01659047574868256
smoothSolver:  Solving for Ux, Initial residual = 0.003064575072675381, Final residual = 3.84500726731943e-05, No Iterations 3
smoothSolver:  Solving for Uy, Initial residual = 0.009135111422048377, Final residual = 4.144888840383119e-05, No Iterations 4
DICPBiCGStab:  Solving for p, Initial residual = 0.06040294199708197, Final residual = 0.003698721438078858, No Iterations 1
DICPBiCGStab:  Solving for p, Initial residual = 0.005100105922834094, Final residual = 0.0004835778458516992, No Iterations 8
time step continuity errors : sum local = 1.342219725314175e-05, global = -1.258221261638626e-05, cumulative = 0.01657789353606617
DICPBiCGStab:  Solving for p, Initial residual = 0.01869497087879375, Final residual = 0.001393631922176708, No Iterations 1
DICPBiCGStab:  Solving for p, Initial residual = 0.001927289290083112, Final residual = 9.13200404803756e-07, No Iterations 33
time step continuity errors : sum local = 2.494541907656451e-08, global = -5.716386005672087e-09, cumulative = 0.01657788781968016
PIMPLE: iteration 2
smoothSolver:  Solving for Ux, Initial residual = 0.004477886585698677, Final residual = 8.713387804240789e-07, No Iterations 15
smoothSolver:  Solving for Uy, Initial residual = 0.01265927753054297, Final residual = 6.627562887143434e-07, No Iterations 18
DICPBiCGStab:  Solving for p, Initial residual = 0.05000796108655303, Final residual = 0.003679181850247946, No Iterations 1
DICPBiCGStab:  Solving for p, Initial residual = 0.005242300225657172, Final residual = 0.0005006538972962221, No Iterations 18
time step continuity errors : sum local = 1.562517460939408e-05, global = 2.308274880398772e-06, cumulative = 0.01658019609456056
DICPBiCGStab:  Solving for p, Initial residual = 0.01301557526928908, Final residual = 0.001242032592778531, No Iterations 3
DICPBiCGStab:  Solving for p, Initial residual = 0.002104785377257525, Final residual = 7.368798978509832e-07, No Iterations 34
time step continuity errors : sum local = 2.411045571267777e-08, global = 3.877978985749001e-10, cumulative = 0.01658019648235846
ExecutionTime = 0.24 s  ClockTime = 1 s

TrimForces TrimForces_Dir write:


Courant Number mean: 9.385628758446217 max: 610.8370311746568
Time = 11.5

PIMPLE: iteration 1
TARGET 0.5
AVERGAE Y: 1.529958965641689e-311
e_t_SUMME: 0.5773470000000001
IST_alt 0.480437
IST_alt_neu 0
e_t 4.680137867996084e-310
e_t_alt 0.0416312
K_P 0.009999999776482582
K_I 1.899999976158142
K_D 0
P 9.977245065992698e-43
I 9.991258050635946e-43
D 1.253033000388526e+17
Read_Time_Intervall: 12.56637096405029
startTime: 10
amplitude_ 1.46205510031499e-311
AMI: Creating addressing and weights between 29 source faces and 29 target faces
AMI: Patch source sum(weights) min:0.9999999999999999 max:1 average:1
AMI: Patch target sum(weights) min:0.9999999999999999 max:1 average:1
DICPBiCGStab:  Solving for pcorr, Initial residual = 0.9999999999999153, Final residual = 0.09176323362967959, No Iterations 6
DICPBiCGStab:  Solving for pcorr, Initial residual = 0.403181202744656, Final residual = 9.167729640763252e-07, No Iterations 47
time step continuity errors : sum local = 5.88488136505305e-14, global = 1.902449482037446e-14, cumulative = 0.01658019648237748
smoothSolver:  Solving for Ux, Initial residual = 0.002828572309931503, Final residual = 3.98120775987132e-05, No Iterations 3
smoothSolver:  Solving for Uy, Initial residual = 0.007979986802311932, Final residual = 3.345965562717164e-05, No Iterations 4
DICPBiCGStab:  Solving for p, Initial residual = 0.06164169554548009, Final residual = 0.003911472906959527, No Iterations 1
DICPBiCGStab:  Solving for p, Initial residual = 0.005277331088373956, Final residual = 0.0005061257187744891, No Iterations 6
time step continuity errors : sum local = 1.385883822292126e-05, global = -4.52730542392368e-06, cumulative = 0.01657566917695356
DICPBiCGStab:  Solving for p, Initial residual = 0.01841440595405283, Final residual = 0.001285342575996929, No Iterations 1
DICPBiCGStab:  Solving for p, Initial residual = 0.001778032227197865, Final residual = 9.747816799019454e-07, No Iterations 31
time step continuity errors : sum local = 2.674741128413316e-08, global = 2.44620567648592e-09, cumulative = 0.01657567162315924
PIMPLE: iteration 2
smoothSolver:  Solving for Ux, Initial residual = 0.004046176959021555, Final residual = 6.725935473218088e-07, No Iterations 15
smoothSolver:  Solving for Uy, Initial residual = 0.0119589727725094, Final residual = 7.029425284013992e-07, No Iterations 18
DICPBiCGStab:  Solving for p, Initial residual = 0.04860450109680095, Final residual = 0.003467390523572108, No Iterations 1
DICPBiCGStab:  Solving for p, Initial residual = 0.005140203565783816, Final residual = 0.0004962645437120531, No Iterations 5
time step continuity errors : sum local = 1.564868979782173e-05, global = 1.179491901827956e-05, cumulative = 0.01658746654217752
DICPBiCGStab:  Solving for p, Initial residual = 0.01233412345747126, Final residual = 0.001173775372157953, No Iterations 2
DICPBiCGStab:  Solving for p, Initial residual = 0.001845555445157387, Final residual = 9.068743299481057e-07, No Iterations 30
time step continuity errors : sum local = 2.878997896064763e-08, global = -3.59365341586664e-09, cumulative = 0.0165874629485241
ExecutionTime = 0.26 s  ClockTime = 1 s

TrimForces TrimForces_Dir write:


Courant Number mean: 9.385735266451958 max: 613.9123657546792
Time = 11.6

PIMPLE: iteration 1
TARGET 0.5
AVERGAE Y: 1.529958965641689e-311
e_t_SUMME: 0.5773470000000001
IST_alt 0.480437
IST_alt_neu 0
e_t 4.680137867996084e-310
e_t_alt 0.0416312
K_P 0.009999999776482582
K_I 1.899999976158142
K_D 0
P 9.977245065992698e-43
I 9.991258050635946e-43
D 1.253033000388526e+17
Read_Time_Intervall: 12.56637096405029
startTime: 10
amplitude_ 1.46205510031499e-311
AMI: Creating addressing and weights between 29 source faces and 29 target faces
AMI: Patch source sum(weights) min:0.9999999999999999 max:1 average:1
AMI: Patch target sum(weights) min:0.9999999999999999 max:1 average:1
DICPBiCGStab:  Solving for pcorr, Initial residual = 0.9999999999999291, Final residual = 0.09646643225407642, No Iterations 6
DICPBiCGStab:  Solving for pcorr, Initial residual = 0.2960517775650052, Final residual = 8.471655397034341e-07, No Iterations 53
time step continuity errors : sum local = 6.514614770484065e-14, global = 8.689568779973015e-16, cumulative = 0.01658746294852497
smoothSolver:  Solving for Ux, Initial residual = 0.002966276332121568, Final residual = 3.889175945724141e-05, No Iterations 3
smoothSolver:  Solving for Uy, Initial residual = 0.007861859977311321, Final residual = 3.621509051664177e-05, No Iterations 4
DICPBiCGStab:  Solving for p, Initial residual = 0.06000786556410254, Final residual = 0.003723823051984513, No Iterations 1
DICPBiCGStab:  Solving for p, Initial residual = 0.005092110053929656, Final residual = 0.0004138417843730568, No Iterations 21
time step continuity errors : sum local = 1.154452907429625e-05, global = 1.900993315969202e-07, cumulative = 0.01658765304785656
DICPBiCGStab:  Solving for p, Initial residual = 0.01880038741267041, Final residual = 0.001308642270544169, No Iterations 1
DICPBiCGStab:  Solving for p, Initial residual = 0.001781698584016334, Final residual = 5.729282513806348e-07, No Iterations 29
time step continuity errors : sum local = 1.550773291912811e-08, global = 6.244419486170053e-09, cumulative = 0.01658765929227605
PIMPLE: iteration 2
smoothSolver:  Solving for Ux, Initial residual = 0.003754190950954271, Final residual = 6.204429577416596e-07, No Iterations 15
smoothSolver:  Solving for Uy, Initial residual = 0.01160688487978806, Final residual = 7.241207106370169e-07, No Iterations 18
DICPBiCGStab:  Solving for p, Initial residual = 0.04917971766946773, Final residual = 0.003706933513882442, No Iterations 1
DICPBiCGStab:  Solving for p, Initial residual = 0.005290462358335471, Final residual = 0.0005178732433378331, No Iterations 7
time step continuity errors : sum local = 1.632743376144873e-05, global = 1.642256390777621e-06, cumulative = 0.01658930154866682
DICPBiCGStab:  Solving for p, Initial residual = 0.01219291959215453, Final residual = 0.001009609209459546, No Iterations 3
DICPBiCGStab:  Solving for p, Initial residual = 0.001923032856422573, Final residual = 1.86583641581012e-07, No Iterations 30
time step continuity errors : sum local = 5.956327064337519e-09, global = -5.09026886913804e-09, cumulative = 0.01658929645839795
ExecutionTime = 0.28 s  ClockTime = 1 s

TrimForces TrimForces_Dir write:


Courant Number mean: 9.385763336514666 max: 617.0854793285796
Time = 11.7

PIMPLE: iteration 1
TARGET 0.5
AVERGAE Y: 1.529958965641689e-311
e_t_SUMME: 0.5773470000000001
IST_alt 0.480437
IST_alt_neu 0
e_t 4.680137867996084e-310
e_t_alt 0.0416312
K_P 0.009999999776482582
K_I 1.899999976158142
K_D 0
P 9.977245065992698e-43
I 9.991258050635946e-43
D 1.253033000388526e+17
Read_Time_Intervall: 12.56637096405029
startTime: 10
amplitude_ 1.46205510031499e-311
AMI: Creating addressing and weights between 29 source faces and 29 target faces
AMI: Patch source sum(weights) min:0.9999999999999999 max:1 average:1
AMI: Patch target sum(weights) min:0.9999999999999999 max:1 average:1
DICPBiCGStab:  Solving for pcorr, Initial residual = 0.9999999999996573, Final residual = 0.08824476042184752, No Iterations 20
DICPBiCGStab:  Solving for pcorr, Initial residual = 0.05658754489983327, Final residual = 7.593662146347572e-07, No Iterations 39
time step continuity errors : sum local = 1.892760982397276e-13, global = -1.168378054404905e-13, cumulative = 0.01658929645828112
smoothSolver:  Solving for Ux, Initial residual = 0.002283219039872524, Final residual = 3.260662397668974e-05, No Iterations 3
smoothSolver:  Solving for Uy, Initial residual = 0.007793735431636179, Final residual = 3.749916407253459e-05, No Iterations 4
DICPBiCGStab:  Solving for p, Initial residual = 0.0601786083724771, Final residual = 0.00373778396574109, No Iterations 1
DICPBiCGStab:  Solving for p, Initial residual = 0.005114949311036265, Final residual = 0.0004900495686901385, No Iterations 7
time step continuity errors : sum local = 1.357529843991809e-05, global = -2.87300779010011e-06, cumulative = 0.01658642345049102
DICPBiCGStab:  Solving for p, Initial residual = 0.01818504540022639, Final residual = 0.001289504423762439, No Iterations 1
DICPBiCGStab:  Solving for p, Initial residual = 0.001752428679106969, Final residual = 9.751848218837509e-07, No Iterations 34
time step continuity errors : sum local = 2.67235896919335e-08, global = -1.573185293094769e-09, cumulative = 0.01658642187730573
PIMPLE: iteration 2
smoothSolver:  Solving for Ux, Initial residual = 0.003558129010806692, Final residual = 6.422530623126862e-07, No Iterations 15
smoothSolver:  Solving for Uy, Initial residual = 0.01127563957953693, Final residual = 7.223211153067842e-07, No Iterations 18
DICPBiCGStab:  Solving for p, Initial residual = 0.04913545969231711, Final residual = 0.003742487125983385, No Iterations 1
DICPBiCGStab:  Solving for p, Initial residual = 0.005275345562003391, Final residual = 0.0005257060142761201, No Iterations 7
time step continuity errors : sum local = 1.656872036442045e-05, global = 2.980596920029482e-06, cumulative = 0.01658940247422576
DICPBiCGStab:  Solving for p, Initial residual = 0.01212180667463309, Final residual = 0.0009876213339886533, No Iterations 3
DICPBiCGStab:  Solving for p, Initial residual = 0.001867625140990362, Final residual = 3.256980001771505e-07, No Iterations 30
time step continuity errors : sum local = 1.039648182168029e-08, global = -1.039648123130572e-08, cumulative = 0.01658939207774452
ExecutionTime = 0.29 s  ClockTime = 1 s

TrimForces TrimForces_Dir write:


Courant Number mean: 9.385773218106054 max: 618.8716896120136
Time = 11.8

PIMPLE: iteration 1
TARGET 0.5
AVERGAE Y: 1.529958965641689e-311
e_t_SUMME: 0.5773470000000001
IST_alt 0.480437
IST_alt_neu 0
e_t 4.680137867996084e-310
e_t_alt 0.0416312
K_P 0.009999999776482582
K_I 1.899999976158142
K_D 0
P 9.977245065992698e-43
I 9.991258050635946e-43
D 1.253033000388526e+17
Read_Time_Intervall: 12.56637096405029
startTime: 10
amplitude_ 1.46205510031499e-311
AMI: Creating addressing and weights between 29 source faces and 29 target faces
AMI: Patch source sum(weights) min:0.9999999999999999 max:1 average:1
AMI: Patch target sum(weights) min:0.9999999999999999 max:1 average:1
DICPBiCGStab:  Solving for pcorr, Initial residual = 0.9999999999998037, Final residual = 0.07011678933811673, No Iterations 20
DICPBiCGStab:  Solving for pcorr, Initial residual = 0.04993644045415481, Final residual = 9.621002166496216e-07, No Iterations 46
time step continuity errors : sum local = 4.756365779618982e-13, global = -9.596835029172488e-14, cumulative = 0.01658939207764856
smoothSolver:  Solving for Ux, Initial residual = 0.002221525040767004, Final residual = 3.281660700932812e-05, No Iterations 3
smoothSolver:  Solving for Uy, Initial residual = 0.007675116240977063, Final residual = 3.567938921688947e-05, No Iterations 4
DICPBiCGStab:  Solving for p, Initial residual = 0.06006454001690834, Final residual = 0.003781759837841281, No Iterations 1
DICPBiCGStab:  Solving for p, Initial residual = 0.005114239206947105, Final residual = 0.0004990579796581439, No Iterations 7
time step continuity errors : sum local = 1.383819415258871e-05, global = -3.254947318316076e-06, cumulative = 0.01658613713033024
DICPBiCGStab:  Solving for p, Initial residual = 0.01817210851427083, Final residual = 0.001287697953483942, No Iterations 1
DICPBiCGStab:  Solving for p, Initial residual = 0.001750937829381929, Final residual = 8.755496529567457e-07, No Iterations 31
time step continuity errors : sum local = 2.400532993255401e-08, global = 1.463129617135178e-08, cumulative = 0.01658615176162641
PIMPLE: iteration 2
smoothSolver:  Solving for Ux, Initial residual = 0.003450195589344221, Final residual = 6.633275342341869e-07, No Iterations 15
smoothSolver:  Solving for Uy, Initial residual = 0.01109027732525119, Final residual = 7.255862797176018e-07, No Iterations 18
DICPBiCGStab:  Solving for p, Initial residual = 0.04922477482298486, Final residual = 0.003658371810547393, No Iterations 1
DICPBiCGStab:  Solving for p, Initial residual = 0.005178469535762795, Final residual = 0.0005164510944083452, No Iterations 7
time step continuity errors : sum local = 1.628360176689648e-05, global = 2.815355150872795e-06, cumulative = 0.01658896711677729
DICPBiCGStab:  Solving for p, Initial residual = 0.01195180403471635, Final residual = 0.0009638521313881186, No Iterations 3
DICPBiCGStab:  Solving for p, Initial residual = 0.001836303165018025, Final residual = 6.579397340541054e-07, No Iterations 30
time step continuity errors : sum local = 2.100678387405621e-08, global = -1.134840035194226e-08, cumulative = 0.01658895576837693
ExecutionTime = 0.31 s  ClockTime = 1 s

TrimForces TrimForces_Dir write:


Courant Number mean: 9.385797732556199 max: 619.3455715698828
Time = 11.9

PIMPLE: iteration 1
TARGET 0.5
AVERGAE Y: 1.529958965641689e-311
e_t_SUMME: 0.5773470000000001
IST_alt 0.480437
IST_alt_neu 0
e_t 4.680137867996084e-310
e_t_alt 0.0416312
K_P 0.009999999776482582
K_I 1.899999976158142
K_D 0
P 9.977245065992698e-43
I 9.991258050635946e-43
D 1.253033000388526e+17
Read_Time_Intervall: 12.56637096405029
startTime: 10
amplitude_ 1.46205510031499e-311
AMI: Creating addressing and weights between 29 source faces and 29 target faces
AMI: Patch source sum(weights) min:0.9999999999999999 max:1 average:1
AMI: Patch target sum(weights) min:0.9999999999999999 max:1 average:1
DICPBiCGStab:  Solving for pcorr, Initial residual = 0.9999999999999027, Final residual = 0.09361118696888855, No Iterations 22
DICPBiCGStab:  Solving for pcorr, Initial residual = 0.05833178528511863, Final residual = 5.165835761881038e-07, No Iterations 49
time step continuity errors : sum local = 3.453752029131559e-13, global = 2.296073260524369e-14, cumulative = 0.01658895576839989
smoothSolver:  Solving for Ux, Initial residual = 0.002153824340679596, Final residual = 3.184582077278916e-05, No Iterations 3
smoothSolver:  Solving for Uy, Initial residual = 0.007553522090453497, Final residual = 3.374603903771604e-05, No Iterations 4
DICPBiCGStab:  Solving for p, Initial residual = 0.06004944775236426, Final residual = 0.003769289482536753, No Iterations 1
DICPBiCGStab:  Solving for p, Initial residual = 0.005116477284377958, Final residual = 0.0005025297030838644, No Iterations 7
time step continuity errors : sum local = 1.393373057217723e-05, global = -2.753624452460019e-06, cumulative = 0.01658620214394744
DICPBiCGStab:  Solving for p, Initial residual = 0.01814640083996582, Final residual = 0.001279734208596964, No Iterations 1
DICPBiCGStab:  Solving for p, Initial residual = 0.00174395432321147, Final residual = 7.70731989500977e-07, No Iterations 30
time step continuity errors : sum local = 2.112727038422424e-08, global = 1.475483267851081e-08, cumulative = 0.01658621689878011
PIMPLE: iteration 2
smoothSolver:  Solving for Ux, Initial residual = 0.003341419354632468, Final residual = 6.538193842108138e-07, No Iterations 15
smoothSolver:  Solving for Uy, Initial residual = 0.01093327192475945, Final residual = 6.893175647642166e-07, No Iterations 18
DICPBiCGStab:  Solving for p, Initial residual = 0.04932820787352556, Final residual = 0.003631290266165957, No Iterations 1
DICPBiCGStab:  Solving for p, Initial residual = 0.005157638713872551, Final residual = 0.0005103618014346437, No Iterations 7
time step continuity errors : sum local = 1.609778698016871e-05, global = 1.844828649167339e-06, cumulative = 0.01658806172742928
DICPBiCGStab:  Solving for p, Initial residual = 0.01207540495075309, Final residual = 0.000950804713706768, No Iterations 3
DICPBiCGStab:  Solving for p, Initial residual = 0.001832584768714982, Final residual = 8.006409534408607e-07, No Iterations 30
time step continuity errors : sum local = 2.556827547507103e-08, global = -2.550199661784378e-08, cumulative = 0.01658803622543266
ExecutionTime = 0.32 s  ClockTime = 1 s

TrimForces TrimForces_Dir write:


Courant Number mean: 9.385831612610998 max: 619.2908316621819
Time = 12

PIMPLE: iteration 1
TARGET 0.5
AVERGAE Y: 1.529958965641689e-311
e_t_SUMME: 0.5773470000000001
IST_alt 0.480437
IST_alt_neu 0
e_t 4.680137867996084e-310
e_t_alt 0.0416312
K_P 0.009999999776482582
K_I 1.899999976158142
K_D 0
P 9.977245065992698e-43
I 9.991258050635946e-43
D 1.253033000388526e+17
Read_Time_Intervall: 12.56637096405029
startTime: 10
amplitude_ 1.46205510031499e-311
AMI: Creating addressing and weights between 29 source faces and 29 target faces
AMI: Patch source sum(weights) min:0.9999999999999999 max:1 average:1
AMI: Patch target sum(weights) min:0.9999999999999999 max:1 average:1
DICPBiCGStab:  Solving for pcorr, Initial residual = 0.9999999999999201, Final residual = 0.07842050903199399, No Iterations 21
DICPBiCGStab:  Solving for pcorr, Initial residual = 0.04755470355769265, Final residual = 2.722631727427888e-07, No Iterations 46
time step continuity errors : sum local = 3.225757392666031e-13, global = -1.026630884672539e-14, cumulative = 0.0165880362254224
smoothSolver:  Solving for Ux, Initial residual = 0.002151880397431387, Final residual = 3.166348106559923e-05, No Iterations 3
smoothSolver:  Solving for Uy, Initial residual = 0.007416236363932197, Final residual = 3.218475658303538e-05, No Iterations 4
DICPBiCGStab:  Solving for p, Initial residual = 0.06000290903558478, Final residual = 0.003824244079375904, No Iterations 1
DICPBiCGStab:  Solving for p, Initial residual = 0.005135114984044929, Final residual = 0.0004726858362847997, No Iterations 7
time step continuity errors : sum local = 1.308704265158834e-05, global = -1.642720348290249e-06, cumulative = 0.01658639350507411
DICPBiCGStab:  Solving for p, Initial residual = 0.01825479957290096, Final residual = 0.001232342439278061, No Iterations 1
DICPBiCGStab:  Solving for p, Initial residual = 0.001681838017955443, Final residual = 9.570370674598275e-07, No Iterations 29
time step continuity errors : sum local = 2.620799303530311e-08, global = 2.427761834103853e-08, cumulative = 0.01658641778269245
PIMPLE: iteration 2
smoothSolver:  Solving for Ux, Initial residual = 0.003287897725990799, Final residual = 6.344063049711326e-07, No Iterations 15
smoothSolver:  Solving for Uy, Initial residual = 0.0107169232870691, Final residual = 6.402474288172155e-07, No Iterations 18
DICPBiCGStab:  Solving for p, Initial residual = 0.04932990840031833, Final residual = 0.003579130517901758, No Iterations 1
DICPBiCGStab:  Solving for p, Initial residual = 0.005095742482350422, Final residual = 0.0004938953904463842, No Iterations 7
time step continuity errors : sum local = 1.558762532215252e-05, global = 5.022378738551479e-07, cumulative = 0.0165869200205663
DICPBiCGStab:  Solving for p, Initial residual = 0.01190145693105368, Final residual = 0.0009360772155076307, No Iterations 3
DICPBiCGStab:  Solving for p, Initial residual = 0.001787515150706683, Final residual = 8.307278508785436e-07, No Iterations 29
time step continuity errors : sum local = 2.651325445993983e-08, global = -2.356642565500954e-08, cumulative = 0.01658689645414065
ExecutionTime = 0.35 s  ClockTime = 1 s

TrimForces TrimForces_Dir write:


Courant Number mean: 9.385859177994995 max: 619.1414058697287
Time = 12.1

PIMPLE: iteration 1
TARGET 0.5
AVERGAE Y: 1.529958965641689e-311
e_t_SUMME: 0.5773470000000001
IST_alt 0.480437
IST_alt_neu 0
e_t 4.680137867996084e-310
e_t_alt 0.0416312
K_P 0.009999999776482582
K_I 1.899999976158142
K_D 0
P 9.977245065992698e-43
I 9.991258050635946e-43
D 1.253033000388526e+17
Read_Time_Intervall: 12.56637096405029
startTime: 10
amplitude_ 1.46205510031499e-311
AMI: Creating addressing and weights between 29 source faces and 29 target faces
AMI: Patch source sum(weights) min:0.9999999999999999 max:1 average:1
AMI: Patch target sum(weights) min:0.9999999999999999 max:1 average:1
DICPBiCGStab:  Solving for pcorr, Initial residual = 0.999999999999923, Final residual = 0.09798807078805108, No Iterations 21
DICPBiCGStab:  Solving for pcorr, Initial residual = 0.05260103851690166, Final residual = 8.030222929370084e-07, No Iterations 41
time step continuity errors : sum local = 9.566633740981591e-13, global = -1.47599654896442e-13, cumulative = 0.01658689645399305
smoothSolver:  Solving for Ux, Initial residual = 0.002072108434621292, Final residual = 3.042566636218446e-05, No Iterations 3
smoothSolver:  Solving for Uy, Initial residual = 0.007203896793806806, Final residual = 3.080117228239016e-05, No Iterations 4
DICPBiCGStab:  Solving for p, Initial residual = 0.06016547316504617, Final residual = 0.00376723982154792, No Iterations 1
DICPBiCGStab:  Solving for p, Initial residual = 0.005133636255656981, Final residual = 0.000507899488153095, No Iterations 7
time step continuity errors : sum local = 1.403921952157548e-05, global = -4.906028486207164e-07, cumulative = 0.01658640585114443
DICPBiCGStab:  Solving for p, Initial residual = 0.01821857098998676, Final residual = 0.001261292266055891, No Iterations 1
DICPBiCGStab:  Solving for p, Initial residual = 0.001726578593303971, Final residual = 6.087468322343858e-07, No Iterations 35
time step continuity errors : sum local = 1.666077021092505e-08, global = -9.809129795073297e-10, cumulative = 0.01658640487023145
PIMPLE: iteration 2
smoothSolver:  Solving for Ux, Initial residual = 0.003235639721811523, Final residual = 6.437547144892905e-07, No Iterations 15
smoothSolver:  Solving for Uy, Initial residual = 0.01054489853151913, Final residual = 5.847911477665809e-07, No Iterations 18
DICPBiCGStab:  Solving for p, Initial residual = 0.04937111160511451, Final residual = 0.003628130398947623, No Iterations 1
DICPBiCGStab:  Solving for p, Initial residual = 0.005144013849822581, Final residual = 0.0005088894701920239, No Iterations 7
time step continuity errors : sum local = 1.606782549048251e-05, global = -7.229554864684659e-07, cumulative = 0.01658568191474498
DICPBiCGStab:  Solving for p, Initial residual = 0.0120349930421909, Final residual = 0.001186294596980219, No Iterations 2
DICPBiCGStab:  Solving for p, Initial residual = 0.001909262017165136, Final residual = 7.093635664176888e-07, No Iterations 29
time step continuity errors : sum local = 2.26856434155693e-08, global = -2.182291849268965e-08, cumulative = 0.01658566009182649
ExecutionTime = 0.36 s  ClockTime = 1 s

TrimForces TrimForces_Dir write:


Courant Number mean: 9.385898327975328 max: 618.8184224014913
Time = 12.2

PIMPLE: iteration 1
TARGET 0.5
AVERGAE Y: 1.529958965641689e-311
e_t_SUMME: 0.5773470000000001
IST_alt 0.480437
IST_alt_neu 0
e_t 4.680137867996084e-310
e_t_alt 0.0416312
K_P 0.009999999776482582
K_I 1.899999976158142
K_D 0
P 9.977245065992698e-43
I 9.991258050635946e-43
D 1.253033000388526e+17
Read_Time_Intervall: 12.56637096405029
startTime: 10
amplitude_ 1.46205510031499e-311
AMI: Creating addressing and weights between 29 source faces and 29 target faces
AMI: Patch source sum(weights) min:0.9999999999999999 max:1 average:1
AMI: Patch target sum(weights) min:0.9999999999999999 max:1 average:1
DICPBiCGStab:  Solving for pcorr, Initial residual = 0.99999999999991, Final residual = 0.07790244992934238, No Iterations 19
DICPBiCGStab:  Solving for pcorr, Initial residual = 0.05112371015002797, Final residual = 7.372815336002866e-07, No Iterations 44
time step continuity errors : sum local = 8.221579497821383e-13, global = 2.4447757661222e-14, cumulative = 0.01658566009185094
smoothSolver:  Solving for Ux, Initial residual = 0.002113837378656018, Final residual = 3.020568480930519e-05, No Iterations 3
smoothSolver:  Solving for Uy, Initial residual = 0.007155156411953714, Final residual = 3.017292726977724e-05, No Iterations 4
DICPBiCGStab:  Solving for p, Initial residual = 0.06025024296408673, Final residual = 0.003793425279158373, No Iterations 1
DICPBiCGStab:  Solving for p, Initial residual = 0.005134830012453369, Final residual = 0.0005070790648414906, No Iterations 7
time step continuity errors : sum local = 1.398728970271561e-05, global = 9.349349938222241e-07, cumulative = 0.01658659502684476
DICPBiCGStab:  Solving for p, Initial residual = 0.01830861633062059, Final residual = 0.001238470928667458, No Iterations 1
DICPBiCGStab:  Solving for p, Initial residual = 0.001692486791218425, Final residual = 9.771570359836031e-07, No Iterations 32
time step continuity errors : sum local = 2.672921798710575e-08, global = -1.811325180313894e-09, cumulative = 0.01658659321551958
PIMPLE: iteration 2
smoothSolver:  Solving for Ux, Initial residual = 0.0032520463902277, Final residual = 6.268414691712969e-07, No Iterations 15
smoothSolver:  Solving for Uy, Initial residual = 0.01040025199516602, Final residual = 5.349570440791634e-07, No Iterations 18
DICPBiCGStab:  Solving for p, Initial residual = 0.0493022739992067, Final residual = 0.003579451597903097, No Iterations 1
DICPBiCGStab:  Solving for p, Initial residual = 0.005098963572797655, Final residual = 0.0004592574448589362, No Iterations 8
time step continuity errors : sum local = 1.450785771018509e-05, global = -1.999286726245047e-06, cumulative = 0.01658459392879333
DICPBiCGStab:  Solving for p, Initial residual = 0.01196671985468601, Final residual = 0.001187333855610389, No Iterations 2
DICPBiCGStab:  Solving for p, Initial residual = 0.001903880417073734, Final residual = 6.926590467014106e-07, No Iterations 34
time step continuity errors : sum local = 2.217198725458287e-08, global = -1.181645597845687e-08, cumulative = 0.01658458211233736
ExecutionTime = 0.38 s  ClockTime = 1 s

TrimForces TrimForces_Dir write:


Courant Number mean: 9.385933000568631 max: 618.3960132079997
Time = 12.3

PIMPLE: iteration 1
TARGET 0.5
AVERGAE Y: 1.529958965641689e-311
e_t_SUMME: 0.5773470000000001
IST_alt 0.480437
IST_alt_neu 0
e_t 4.680137867996084e-310
e_t_alt 0.0416312
K_P 0.009999999776482582
K_I 1.899999976158142
K_D 0
P 9.977245065992698e-43
I 9.991258050635946e-43
D 1.253033000388526e+17
Read_Time_Intervall: 12.56637096405029
startTime: 10
amplitude_ 1.46205510031499e-311
AMI: Creating addressing and weights between 29 source faces and 29 target faces
AMI: Patch source sum(weights) min:0.9999999999999999 max:1 average:1
AMI: Patch target sum(weights) min:0.9999999999999999 max:1 average:1
DICPBiCGStab:  Solving for pcorr, Initial residual = 0.9999999999999079, Final residual = 0.09956043546496492, No Iterations 21
DICPBiCGStab:  Solving for pcorr, Initial residual = 0.06083655694066983, Final residual = 2.778946610301137e-07, No Iterations 50
time step continuity errors : sum local = 1.939515331685899e-13, global = 1.851400039546007e-14, cumulative = 0.01658458211235587
smoothSolver:  Solving for Ux, Initial residual = 0.002066545411395997, Final residual = 2.889168894848168e-05, No Iterations 3
smoothSolver:  Solving for Uy, Initial residual = 0.00698104514274509, Final residual = 2.943946114786839e-05, No Iterations 4
DICPBiCGStab:  Solving for p, Initial residual = 0.06049673582390262, Final residual = 0.003713444208809394, No Iterations 1
DICPBiCGStab:  Solving for p, Initial residual = 0.005109264151925749, Final residual = 0.0004862127152617666, No Iterations 6
time step continuity errors : sum local = 1.337091625262106e-05, global = 2.37666469977046e-06, cumulative = 0.01658695877705564
DICPBiCGStab:  Solving for p, Initial residual = 0.0182332066326968, Final residual = 0.001219187814503788, No Iterations 1
DICPBiCGStab:  Solving for p, Initial residual = 0.001681316277647045, Final residual = 8.998713735183868e-07, No Iterations 34
time step continuity errors : sum local = 2.463911346516588e-08, global = -9.158721866653103e-10, cumulative = 0.01658695786118345
PIMPLE: iteration 2
smoothSolver:  Solving for Ux, Initial residual = 0.003275094992458091, Final residual = 6.255042427173286e-07, No Iterations 15
smoothSolver:  Solving for Uy, Initial residual = 0.01041733553607903, Final residual = 9.493635964415572e-07, No Iterations 17
DICPBiCGStab:  Solving for p, Initial residual = 0.04939173955595924, Final residual = 0.003715899586888808, No Iterations 1
DICPBiCGStab:  Solving for p, Initial residual = 0.005249675576439451, Final residual = 0.0004882702406795408, No Iterations 8
time step continuity errors : sum local = 1.54314169107707e-05, global = -3.652560077893496e-06, cumulative = 0.01658330530110556
DICPBiCGStab:  Solving for p, Initial residual = 0.01223314781090534, Final residual = 0.001032080655860785, No Iterations 3
DICPBiCGStab:  Solving for p, Initial residual = 0.001915664915193745, Final residual = 8.898009782505505e-07, No Iterations 30
time step continuity errors : sum local = 2.847959094462413e-08, global = 4.130521615437802e-09, cumulative = 0.01658330943162717
ExecutionTime = 0.39 s  ClockTime = 1 s

TrimForces TrimForces_Dir write:


Courant Number mean: 9.385954675910229 max: 617.8029314423133
Time = 12.4

PIMPLE: iteration 1
TARGET 0.5
AVERGAE Y: 1.529958965641689e-311
e_t_SUMME: 0.5773470000000001
IST_alt 0.480437
IST_alt_neu 0
e_t 4.680137867996084e-310
e_t_alt 0.0416312
K_P 0.009999999776482582
K_I 1.899999976158142
K_D 0
P 9.977245065992698e-43
I 9.991258050635946e-43
D 1.253033000388526e+17
Read_Time_Intervall: 12.56637096405029
startTime: 10
amplitude_ 1.46205510031499e-311
AMI: Creating addressing and weights between 29 source faces and 29 target faces
AMI: Patch source sum(weights) min:0.9999999999999999 max:1 average:1
AMI: Patch target sum(weights) min:0.9999999999999999 max:1 average:1
DICPBiCGStab:  Solving for pcorr, Initial residual = 0.9999999999999283, Final residual = 0.09601103196594922, No Iterations 18
DICPBiCGStab:  Solving for pcorr, Initial residual = 0.1058782415343565, Final residual = 2.737706407233593e-07, No Iterations 48
time step continuity errors : sum local = 7.749877020608839e-14, global = 1.541880097979823e-14, cumulative = 0.01658330943164259
smoothSolver:  Solving for Ux, Initial residual = 0.002190121102796377, Final residual = 3.093290214253147e-05, No Iterations 3
smoothSolver:  Solving for Uy, Initial residual = 0.007037830628221981, Final residual = 2.953691411152021e-05, No Iterations 4
DICPBiCGStab:  Solving for p, Initial residual = 0.06046713024458566, Final residual = 0.003822835011563725, No Iterations 1
DICPBiCGStab:  Solving for p, Initial residual = 0.005199140023927653, Final residual = 0.0004826431520222458, No Iterations 7
time step continuity errors : sum local = 1.325238671489989e-05, global = 4.263868411621899e-06, cumulative = 0.01658757330005421
DICPBiCGStab:  Solving for p, Initial residual = 0.01834888699124774, Final residual = 0.001203078322519274, No Iterations 1
DICPBiCGStab:  Solving for p, Initial residual = 0.001658240512110424, Final residual = 9.509062068488428e-07, No Iterations 33
time step continuity errors : sum local = 2.596293005663755e-08, global = -4.604152490822906e-09, cumulative = 0.01658756869590172
PIMPLE: iteration 2
smoothSolver:  Solving for Ux, Initial residual = 0.003387375208688722, Final residual = 6.26155889117895e-07, No Iterations 15
smoothSolver:  Solving for Uy, Initial residual = 0.01032667453873105, Final residual = 8.889002931439492e-07, No Iterations 17
DICPBiCGStab:  Solving for p, Initial residual = 0.04924542408470244, Final residual = 0.003555127487132197, No Iterations 1
DICPBiCGStab:  Solving for p, Initial residual = 0.005095956233209592, Final residual = 0.0004671818686225282, No Iterations 8
time step continuity errors : sum local = 1.4784625908965e-05, global = -5.413536745780421e-06, cumulative = 0.01658215515915594
DICPBiCGStab:  Solving for p, Initial residual = 0.01205256336387739, Final residual = 0.0009970605020322837, No Iterations 3
DICPBiCGStab:  Solving for p, Initial residual = 0.001823475543122331, Final residual = 2.365921287155629e-07, No Iterations 34
time step continuity errors : sum local = 7.556881813694628e-09, global = -7.269350686916261e-10, cumulative = 0.01658215443222088
ExecutionTime = 0.41 s  ClockTime = 1 s

TrimForces TrimForces_Dir write:


Courant Number mean: 9.385974774629004 max: 617.1225105130155
Time = 12.5

PIMPLE: iteration 1
TARGET 0.5
AVERGAE Y: 1.529958965641689e-311
e_t_SUMME: 0.5773470000000001
IST_alt 0.480437
IST_alt_neu 0
e_t 4.680137867996084e-310
e_t_alt 0.0416312
K_P 0.009999999776482582
K_I 1.899999976158142
K_D 0
P 9.977245065992698e-43
I 9.991258050635946e-43
D 1.253033000388526e+17
Read_Time_Intervall: 12.56637096405029
startTime: 10
amplitude_ 1.46205510031499e-311
AMI: Creating addressing and weights between 29 source faces and 29 target faces
AMI: Patch source sum(weights) min:0.9999999999999999 max:1 average:1
[...]
DICPBiCGStab:  Solving for p, Initial residual = 0.00257534602671091, Final residual = 4.47770329156018e-07, No Iterations 31
time step continuity errors : sum local = 2.033825546547343e-08, global = 5.157648938643275e-09, cumulative = 0.01699003429581953
ExecutionTime = 1.65 s  ClockTime = 2 s

TrimForces TrimForces_Dir write:


Courant Number mean: 9.343151720451132 max: 594.3523274965466
Time = 19.5

PIMPLE: iteration 1
TARGET 0.5
AVERGAE Y: 0.6047921592456599
e_t_SUMME: 0.6784186940375666
IST_alt 0.6047921592456599
IST_alt_neu 0.6047921592456599
e_t -0.1047921592456599
e_t_alt -0.2064122094586492
K_P 0.009999999776482582
K_I 1.899999976158142
K_D 0
P -0.001047921599820256
I 0.1288995444774628
D 0
Read_Time_Intervall: 21.56637191772461
startTime: 10
amplitude_ 0.1278516203165054
AMI: Creating addressing and weights between 29 source faces and 29 target faces
AMI: Patch source sum(weights) min:1.00284436651903 max:1.002844366519037 average:1.002844366519033
AMI: Patch target sum(weights) min:1.002844366519028 max:1.002844366519037 average:1.002844366519033
DICPBiCGStab:  Solving for pcorr, Initial residual = 0.9999999999998995, Final residual = 0.09551405204194785, No Iterations 19
DICPBiCGStab:  Solving for pcorr, Initial residual = 0.1145982428587755, Final residual = 9.464474183398497e-07, No Iterations 41
time step continuity errors : sum local = 1.172236902793607e-13, global = -1.403511749156175e-14, cumulative = 0.0169900342958055
smoothSolver:  Solving for Ux, Initial residual = 0.001271655303102305, Final residual = 6.138477340620531e-05, No Iterations 2
smoothSolver:  Solving for Uy, Initial residual = 0.004947082930603352, Final residual = 5.614213406327444e-05, No Iterations 3
DICPBiCGStab:  Solving for p, Initial residual = 0.05500255525975012, Final residual = 0.0034622541902291, No Iterations 1
DICPBiCGStab:  Solving for p, Initial residual = 0.004642293707882513, Final residual = 0.0004460951756923468, No Iterations 11
time step continuity errors : sum local = 1.744113137357101e-05, global = -1.449976850803765e-05, cumulative = 0.01697553452729746
DICPBiCGStab:  Solving for p, Initial residual = 0.01782347735085649, Final residual = 0.001257962589289891, No Iterations 1
DICPBiCGStab:  Solving for p, Initial residual = 0.001685183940784968, Final residual = 7.687994324400571e-07, No Iterations 29
time step continuity errors : sum local = 2.966476927919281e-08, global = -5.326599846270328e-09, cumulative = 0.01697552920069761
PIMPLE: iteration 2
smoothSolver:  Solving for Ux, Initial residual = 0.001996798950529345, Final residual = 6.270178377213523e-07, No Iterations 13
smoothSolver:  Solving for Uy, Initial residual = 0.008219292706754807, Final residual = 6.260975439906671e-07, No Iterations 15
DICPBiCGStab:  Solving for p, Initial residual = 0.04553196017002535, Final residual = 0.003436079582192963, No Iterations 1
DICPBiCGStab:  Solving for p, Initial residual = 0.005133338722898087, Final residual = 0.0005032189954504627, No Iterations 7
time step continuity errors : sum local = 2.251377016114608e-05, global = 1.880566489070438e-05, cumulative = 0.01699433486558832
DICPBiCGStab:  Solving for p, Initial residual = 0.01276498678380331, Final residual = 0.001159908137151087, No Iterations 3
DICPBiCGStab:  Solving for p, Initial residual = 0.002586942201986133, Final residual = 4.739249761518296e-07, No Iterations 31
time step continuity errors : sum local = 2.141401480670019e-08, global = -3.606774739941012e-09, cumulative = 0.01699433125881358
ExecutionTime = 1.66 s  ClockTime = 2 s

TrimForces TrimForces_Dir write:


Courant Number mean: 9.343410531257753 max: 595.1121631122137
Time = 19.6

PIMPLE: iteration 1
TARGET 0.5
AVERGAE Y: 0.6047921592456599
e_t_SUMME: 0.6784186940375666
IST_alt 0.6047921592456599
IST_alt_neu 0.6047921592456599
e_t -0.1047921592456599
e_t_alt -0.2064122094586492
K_P 0.009999999776482582
K_I 1.899999976158142
K_D 0
P -0.001047921599820256
I 0.1288995444774628
D 0
Read_Time_Intervall: 21.56637191772461
startTime: 10
amplitude_ 0.1278516203165054
AMI: Creating addressing and weights between 29 source faces and 29 target faces
AMI: Patch source sum(weights) min:1.00284436651903 max:1.002844366519037 average:1.002844366519033
AMI: Patch target sum(weights) min:1.002844366519028 max:1.002844366519037 average:1.002844366519033
DICPBiCGStab:  Solving for pcorr, Initial residual = 0.9999999999999046, Final residual = 0.09316118415961261, No Iterations 9
DICPBiCGStab:  Solving for pcorr, Initial residual = 0.3384030393801647, Final residual = 9.934213898167499e-07, No Iterations 49
time step continuity errors : sum local = 5.287234212859164e-14, global = 5.827522731416086e-15, cumulative = 0.01699433125881941
smoothSolver:  Solving for Ux, Initial residual = 0.001311903403222033, Final residual = 6.143069910754787e-05, No Iterations 2
smoothSolver:  Solving for Uy, Initial residual = 0.00518248514038292, Final residual = 6.332964600557178e-05, No Iterations 3
DICPBiCGStab:  Solving for p, Initial residual = 0.05500339509318435, Final residual = 0.003506266948815686, No Iterations 1
DICPBiCGStab:  Solving for p, Initial residual = 0.004699039847581672, Final residual = 0.0004478007904069486, No Iterations 11
time step continuity errors : sum local = 1.752612312622561e-05, global = -1.674464587930579e-05, cumulative = 0.0169775866129401
DICPBiCGStab:  Solving for p, Initial residual = 0.01786253697056917, Final residual = 0.001308553844486991, No Iterations 1
DICPBiCGStab:  Solving for p, Initial residual = 0.001728583801039046, Final residual = 9.936598261095257e-07, No Iterations 26
time step continuity errors : sum local = 3.828541515969663e-08, global = -1.229315202459377e-08, cumulative = 0.01697757431978808
PIMPLE: iteration 2
smoothSolver:  Solving for Ux, Initial residual = 0.002144363627518416, Final residual = 6.596680809488809e-07, No Iterations 13
smoothSolver:  Solving for Uy, Initial residual = 0.008334252492990387, Final residual = 6.571050751454695e-07, No Iterations 15
DICPBiCGStab:  Solving for p, Initial residual = 0.04576111091481883, Final residual = 0.003603838591924028, No Iterations 1
DICPBiCGStab:  Solving for p, Initial residual = 0.005274103403643204, Final residual = 0.0005032101686747863, No Iterations 9
time step continuity errors : sum local = 2.245993206495103e-05, global = 2.029431394933345e-05, cumulative = 0.01699786863373741
DICPBiCGStab:  Solving for p, Initial residual = 0.01275701213012638, Final residual = 0.001203166006145495, No Iterations 3
DICPBiCGStab:  Solving for p, Initial residual = 0.002617425112387859, Final residual = 7.426738844851548e-07, No Iterations 30
time step continuity errors : sum local = 3.363886432562941e-08, global = 5.037916895243022e-09, cumulative = 0.01699787367165431
ExecutionTime = 1.68 s  ClockTime = 2 s

TrimForces TrimForces_Dir write:


Courant Number mean: 9.343719587641296 max: 595.8957338042918
Time = 19.7

PIMPLE: iteration 1
TARGET 0.5
AVERGAE Y: 0.6047921592456599
e_t_SUMME: 0.6784186940375666
IST_alt 0.6047921592456599
IST_alt_neu 0.6047921592456599
e_t -0.1047921592456599
e_t_alt -0.2064122094586492
K_P 0.009999999776482582
K_I 1.899999976158142
K_D 0
P -0.001047921599820256
I 0.1288995444774628
D 0
Read_Time_Intervall: 21.56637191772461
startTime: 10
amplitude_ 0.1278516203165054
AMI: Creating addressing and weights between 29 source faces and 29 target faces
AMI: Patch source sum(weights) min:1.00284436651903 max:1.002844366519037 average:1.002844366519033
AMI: Patch target sum(weights) min:1.002844366519028 max:1.002844366519037 average:1.002844366519033
DICPBiCGStab:  Solving for pcorr, Initial residual = 0.9999999999999393, Final residual = 0.09807723671419399, No Iterations 10
DICPBiCGStab:  Solving for pcorr, Initial residual = 0.2940005862995579, Final residual = 9.166345415523744e-07, No Iterations 44
time step continuity errors : sum local = 9.975439220293583e-14, global = 9.927977952027678e-14, cumulative = 0.01699787367175358
smoothSolver:  Solving for Ux, Initial residual = 0.001336549853390191, Final residual = 6.159913892345018e-05, No Iterations 2
smoothSolver:  Solving for Uy, Initial residual = 0.00498945020685721, Final residual = 5.673777653043694e-05, No Iterations 3
DICPBiCGStab:  Solving for p, Initial residual = 0.05496733236798473, Final residual = 0.003460876126796731, No Iterations 1
DICPBiCGStab:  Solving for p, Initial residual = 0.004653185627258424, Final residual = 0.0004542421421020872, No Iterations 12
time step continuity errors : sum local = 1.772180615427528e-05, global = -1.340763383888242e-05, cumulative = 0.0169844660379147
DICPBiCGStab:  Solving for p, Initial residual = 0.01784586553004182, Final residual = 0.001251040708132655, No Iterations 1
DICPBiCGStab:  Solving for p, Initial residual = 0.001668869022712505, Final residual = 9.065143871363875e-07, No Iterations 31
time step continuity errors : sum local = 3.484031412469996e-08, global = -2.851434312400023e-09, cumulative = 0.01698446318648039
PIMPLE: iteration 2
smoothSolver:  Solving for Ux, Initial residual = 0.002069722769590478, Final residual = 6.899073157258142e-07, No Iterations 13
smoothSolver:  Solving for Uy, Initial residual = 0.008124471561435104, Final residual = 6.300046132818822e-07, No Iterations 15
DICPBiCGStab:  Solving for p, Initial residual = 0.04558087999249519, Final residual = 0.003473929691271833, No Iterations 1
DICPBiCGStab:  Solving for p, Initial residual = 0.005139952038492211, Final residual = 0.0004964954151421702, No Iterations 6
time step continuity errors : sum local = 2.217656933154922e-05, global = 1.773230738120264e-05, cumulative = 0.0170021954938616
DICPBiCGStab:  Solving for p, Initial residual = 0.01278038878871005, Final residual = 0.001106301870255013, No Iterations 3
DICPBiCGStab:  Solving for p, Initial residual = 0.002545247361798609, Final residual = 6.037404094060304e-07, No Iterations 27
time step continuity errors : sum local = 2.717970179201893e-08, global = -3.909888380766939e-09, cumulative = 0.01700219158397321
ExecutionTime = 1.7 s  ClockTime = 2 s

TrimForces TrimForces_Dir write:


Courant Number mean: 9.344036086383978 max: 596.5945165165184
Time = 19.8

PIMPLE: iteration 1
TARGET 0.5
AVERGAE Y: 0.6047921592456599
e_t_SUMME: 0.6784186940375666
IST_alt 0.6047921592456599
IST_alt_neu 0.6047921592456599
e_t -0.1047921592456599
e_t_alt -0.2064122094586492
K_P 0.009999999776482582
K_I 1.899999976158142
K_D 0
P -0.001047921599820256
I 0.1288995444774628
D 0
Read_Time_Intervall: 21.56637191772461
startTime: 10
amplitude_ 0.1278516203165054
AMI: Creating addressing and weights between 29 source faces and 29 target faces
AMI: Patch source sum(weights) min:1.00284436651903 max:1.002844366519037 average:1.002844366519033
AMI: Patch target sum(weights) min:1.002844366519028 max:1.002844366519037 average:1.002844366519033
DICPBiCGStab:  Solving for pcorr, Initial residual = 0.9999999999999248, Final residual = 0.09455242503300945, No Iterations 16
DICPBiCGStab:  Solving for pcorr, Initial residual = 0.136354862415436, Final residual = 4.317769450849254e-07, No Iterations 43
time step continuity errors : sum local = 6.789940650356646e-14, global = -2.766656259469308e-15, cumulative = 0.01700219158397045
smoothSolver:  Solving for Ux, Initial residual = 0.001352357576537567, Final residual = 6.300802367881351e-05, No Iterations 2
smoothSolver:  Solving for Uy, Initial residual = 0.005310710619104924, Final residual = 6.723625717817714e-05, No Iterations 3
DICPBiCGStab:  Solving for p, Initial residual = 0.05486339103216915, Final residual = 0.003526852963347129, No Iterations 1
DICPBiCGStab:  Solving for p, Initial residual = 0.004704370082800776, Final residual = 0.0004650195001106599, No Iterations 11
time step continuity errors : sum local = 1.817031616268787e-05, global = -1.764683760987372e-05, cumulative = 0.01698454474636057
DICPBiCGStab:  Solving for p, Initial residual = 0.01789123892368464, Final residual = 0.001316935503056726, No Iterations 1
DICPBiCGStab:  Solving for p, Initial residual = 0.001744737546647314, Final residual = 9.535166833587981e-07, No Iterations 27
time step continuity errors : sum local = 3.660538506235879e-08, global = -9.428747856559189e-09, cumulative = 0.01698453531761272
PIMPLE: iteration 2
smoothSolver:  Solving for Ux, Initial residual = 0.002221740293084218, Final residual = 6.914830630067665e-07, No Iterations 13
smoothSolver:  Solving for Uy, Initial residual = 0.008284749013065629, Final residual = 6.684768744705706e-07, No Iterations 15
DICPBiCGStab:  Solving for p, Initial residual = 0.04567551064329289, Final residual = 0.003666425246140269, No Iterations 1
DICPBiCGStab:  Solving for p, Initial residual = 0.005326292176565389, Final residual = 0.0005174324206330751, No Iterations 9
time step continuity errors : sum local = 2.30324821497803e-05, global = 2.115833580795495e-05, cumulative = 0.01700569365342067
DICPBiCGStab:  Solving for p, Initial residual = 0.01274736402097576, Final residual = 0.001203018993832483, No Iterations 3
DICPBiCGStab:  Solving for p, Initial residual = 0.002622495708180005, Final residual = 6.212784944723839e-07, No Iterations 29
time step continuity errors : sum local = 2.812275949135212e-08, global = 1.96517156419219e-09, cumulative = 0.01700569561859224
ExecutionTime = 1.72 s  ClockTime = 2 s

TrimForces TrimForces_Dir write:


Courant Number mean: 9.344336366263454 max: 597.22860464946
Time = 19.9

PIMPLE: iteration 1
TARGET 0.5
AVERGAE Y: 0.6047921592456599
e_t_SUMME: 0.6784186940375666
IST_alt 0.6047921592456599
IST_alt_neu 0.6047921592456599
e_t -0.1047921592456599
e_t_alt -0.2064122094586492
K_P 0.009999999776482582
K_I 1.899999976158142
K_D 0
P -0.001047921599820256
I 0.1288995444774628
D 0
Read_Time_Intervall: 21.56637191772461
startTime: 10
amplitude_ 0.1278516203165054
AMI: Creating addressing and weights between 29 source faces and 29 target faces
AMI: Patch source sum(weights) min:1.00284436651903 max:1.002844366519037 average:1.002844366519033
AMI: Patch target sum(weights) min:1.002844366519028 max:1.002844366519037 average:1.002844366519033
DICPBiCGStab:  Solving for pcorr, Initial residual = 0.9999999999999274, Final residual = 0.09382889136619608, No Iterations 9
DICPBiCGStab:  Solving for pcorr, Initial residual = 0.3333399876561466, Final residual = 8.140189734484109e-07, No Iterations 46
time step continuity errors : sum local = 6.923258106078823e-14, global = 6.846323478884353e-14, cumulative = 0.0170056956186607
smoothSolver:  Solving for Ux, Initial residual = 0.001387838621065076, Final residual = 6.451816852562462e-05, No Iterations 2
smoothSolver:  Solving for Uy, Initial residual = 0.005038154280547673, Final residual = 5.706383316542328e-05, No Iterations 3
DICPBiCGStab:  Solving for p, Initial residual = 0.05479204941636558, Final residual = 0.003517406778010503, No Iterations 1
DICPBiCGStab:  Solving for p, Initial residual = 0.004682028309087196, Final residual = 0.0004425239825887534, No Iterations 17
time step continuity errors : sum local = 1.724029570366221e-05, global = 2.930830509913022e-06, cumulative = 0.01700862644917061
DICPBiCGStab:  Solving for p, Initial residual = 0.01832577479932023, Final residual = 0.001247986202689984, No Iterations 1
DICPBiCGStab:  Solving for p, Initial residual = 0.001664795556956496, Final residual = 9.439902253534991e-07, No Iterations 29
time step continuity errors : sum local = 3.578609451477562e-08, global = 2.675041461123263e-08, cumulative = 0.01700865319958523
PIMPLE: iteration 2
smoothSolver:  Solving for Ux, Initial residual = 0.001993293455610686, Final residual = 6.99466216880628e-07, No Iterations 13
smoothSolver:  Solving for Uy, Initial residual = 0.00815102291930421, Final residual = 7.485376886555334e-07, No Iterations 15
DICPBiCGStab:  Solving for p, Initial residual = 0.04510575187785985, Final residual = 0.003438833358413288, No Iterations 1
DICPBiCGStab:  Solving for p, Initial residual = 0.005084455998806587, Final residual = 0.0004905328690356298, No Iterations 7
time step continuity errors : sum local = 2.201851593680407e-05, global = -4.703376949214358e-06, cumulative = 0.01700394982263601
DICPBiCGStab:  Solving for p, Initial residual = 0.01262950714532904, Final residual = 0.00118067335792705, No Iterations 3
DICPBiCGStab:  Solving for p, Initial residual = 0.002575543797023354, Final residual = 7.076299007196964e-07, No Iterations 27
time step continuity errors : sum local = 3.1830941592482e-08, global = -1.680723607212702e-08, cumulative = 0.01700393301539994
ExecutionTime = 1.73 s  ClockTime = 2 s

TrimForces TrimForces_Dir write:


Courant Number mean: 9.34461012598967 max: 597.8249619160925
Time = 20

PIMPLE: iteration 1
TARGET 0.5
AVERGAE Y: 0.6047921592456599
e_t_SUMME: 0.6784186940375666
IST_alt 0.6047921592456599
IST_alt_neu 0.6047921592456599
e_t -0.1047921592456599
e_t_alt -0.2064122094586492
K_P 0.009999999776482582
K_I 1.899999976158142
K_D 0
P -0.001047921599820256
I 0.1288995444774628
D 0
Read_Time_Intervall: 21.56637191772461
startTime: 10
amplitude_ 0.1278516203165054
AMI: Creating addressing and weights between 29 source faces and 29 target faces
AMI: Patch source sum(weights) min:1.00284436651903 max:1.002844366519037 average:1.002844366519033
AMI: Patch target sum(weights) min:1.002844366519028 max:1.002844366519037 average:1.002844366519033
DICPBiCGStab:  Solving for pcorr, Initial residual = 0.9999999999999358, Final residual = 0.05467042743886728, No Iterations 23
DICPBiCGStab:  Solving for pcorr, Initial residual = 0.05534345283161954, Final residual = 8.04419029482419e-07, No Iterations 43
time step continuity errors : sum local = 6.985754826407955e-13, global = 1.912130455218263e-14, cumulative = 0.01700393301541906
smoothSolver:  Solving for Ux, Initial residual = 0.001081829879680881, Final residual = 4.945050565650849e-05, No Iterations 2
smoothSolver:  Solving for Uy, Initial residual = 0.005007074087641027, Final residual = 6.172283467647391e-05, No Iterations 3
DICPBiCGStab:  Solving for p, Initial residual = 0.05570468439922478, Final residual = 0.003477380818900289, No Iterations 1
DICPBiCGStab:  Solving for p, Initial residual = 0.00470394682530339, Final residual = 0.000456211591130532, No Iterations 7
time step continuity errors : sum local = 1.753260960098138e-05, global = -9.118350373609976e-07, cumulative = 0.0170030211803817
DICPBiCGStab:  Solving for p, Initial residual = 0.01789484706552518, Final residual = 0.001136391930780239, No Iterations 1
DICPBiCGStab:  Solving for p, Initial residual = 0.001573360603422201, Final residual = 8.936053387011598e-07, No Iterations 31
time step continuity errors : sum local = 3.423091623539421e-08, global = 1.717574019590383e-08, cumulative = 0.01700303835612189
PIMPLE: iteration 2
smoothSolver:  Solving for Ux, Initial residual = 0.001921806498260134, Final residual = 6.466105882290996e-07, No Iterations 13
smoothSolver:  Solving for Uy, Initial residual = 0.008108736439917493, Final residual = 6.957439448842535e-07, No Iterations 15
DICPBiCGStab:  Solving for p, Initial residual = 0.04529161619826768, Final residual = 0.003426128984476386, No Iterations 1
DICPBiCGStab:  Solving for p, Initial residual = 0.005055238079748532, Final residual = 0.0004867343334354875, No Iterations 7
time step continuity errors : sum local = 2.176188008731666e-05, global = 4.672131416522082e-06, cumulative = 0.01700771048753841
DICPBiCGStab:  Solving for p, Initial residual = 0.01259816714952441, Final residual = 0.001110916372895936, No Iterations 3
DICPBiCGStab:  Solving for p, Initial residual = 0.002519693095478145, Final residual = 5.185755686062832e-07, No Iterations 29
time step continuity errors : sum local = 2.343144823666064e-08, global = 1.494199336873253e-08, cumulative = 0.01700772542953178
ExecutionTime = 1.75 s  ClockTime = 2 s

TrimForces TrimForces_Dir write:


End

