/*---------------------------------------------------------------------------*\
| =========                 |                                                 |
| \\      /  F ield         | OpenFOAM: The Open Source CFD Toolbox           |
|  \\    /   O peration     | Version:  v2006                                 |
|   \\  /    A nd           | Website:  www.openfoam.com                      |
|    \\/     M anipulation  |                                                 |
\*---------------------------------------------------------------------------*/
Build  : _b45f8f6f58-20200629 OPENFOAM=2006
Arch   : "LSB;label=32;scalar=64"
Exec   : pimpleFoam
Date   : Nov 04 2020
Time   : 20:49:50
Host   : marvin-VirtualBox
PID    : 30945
I/O    : uncollated
Case   : /home/marvin/OpenFOAM/marvin-v2006/applications/MyOscillatingRotatingMotion/Case
nProcs : 1
trapFpe: Floating point exception trapping enabled (FOAM_SIGFPE).
fileModificationChecking : Monitoring run-time modified files using timeStampMaster (fileModificationSkew 5, maxFileModificationPolls 20)
allowSystemOperations : Allowing user-supplied system call operations

// * * * * * * * * * * * * * * * * * * * * * * * * * * * * * * * * * * * * * //
Create time

Create mesh for time = 0

Selecting dynamicFvMesh dynamicMotionSolverFvMesh
Selecting motion solver: solidBody
Applying solid body motion to cellZone Circle
Selecting solid-body motion function MyoscillatingRotatingMotion
Applying solid body motion to cellZone Circle

PIMPLE: no residual control data found. Calculations will employ 2 corrector loops

Reading field p

Reading field U

Reading/calculating face flux field phi

AMI: Creating addressing and weights between 29 source faces and 29 target faces
AMI: Patch source sum(weights) min:0.9999999999999999 max:1 average:1
AMI: Patch target sum(weights) min:0.9999999999999999 max:1 average:1
Selecting incompressible transport model Newtonian
Selecting turbulence model type laminar
Selecting laminar stress model Stokes
No MRF models present

No finite volume options present
Constructing face velocity Uf

Courant Number mean: 0.1428893267110719 max: 5.05501078227189

Starting time loop

Myforces MyForces_Dir:
    rho: rhoInf
    Freestream density (rhoInf) set to 1
    Not including porosity effects

Courant Number mean: 0.1428893267110719 max: 5.05501078227189
Time = 0.1

PIMPLE: iteration 1



DIVIDER_Y: 1





TARGET 0.7
AVERGAE Y: 0
IST_SUMME: 0
IST 0
e_t 0.7
y_t 0.1400000020861626
amplitude_ 0.1400000020861626
AMI: Creating addressing and weights between 29 source faces and 29 target faces
AMI: Patch source sum(weights) min:0.9996512037050764 max:1.005739180216314 average:1.002688862739214
AMI: Patch target sum(weights) min:0.9996512037050743 max:1.005739180216316 average:1.002688862739215
DICPBiCGStab:  Solving for pcorr, Initial residual = 1, Final residual = 0.08889865815514855, No Iterations 28
DICPBiCGStab:  Solving for pcorr, Initial residual = 0.07124431459530838, Final residual = 9.953860836689278e-07, No Iterations 41
time step continuity errors : sum local = 1.487727196396609e-05, global = -1.025784421832761e-05, cumulative = -1.025784421832761e-05
smoothSolver:  Solving for Ux, Initial residual = 1, Final residual = 0.007494428170983851, No Iterations 4
smoothSolver:  Solving for Uy, Initial residual = 0.9999999999999986, Final residual = 0.004459663038892956, No Iterations 5
DICPBiCGStab:  Solving for p, Initial residual = 1, Final residual = 0.0982301949594904, No Iterations 20
DICPBiCGStab:  Solving for p, Initial residual = 0.07865711569451719, Final residual = 0.006727730709820337, No Iterations 2
time step continuity errors : sum local = 0.08197964093421778, global = 0.01629691181088277, cumulative = 0.01628665396666444
DICPBiCGStab:  Solving for p, Initial residual = 0.03653425227724431, Final residual = 0.003651203964468316, No Iterations 7
DICPBiCGStab:  Solving for p, Initial residual = 0.01066032038088703, Final residual = 8.883320414532483e-07, No Iterations 26
time step continuity errors : sum local = 8.513104714715368e-06, global = 3.250118884125994e-06, cumulative = 0.01628990408554857
PIMPLE: iteration 2
smoothSolver:  Solving for Ux, Initial residual = 0.7091331161024615, Final residual = 5.675425506566306e-07, No Iterations 17
smoothSolver:  Solving for Uy, Initial residual = 0.3801216628510703, Final residual = 5.239856860377751e-07, No Iterations 15
DICPBiCGStab:  Solving for p, Initial residual = 0.1011317256914002, Final residual = 0.007244743284302955, No Iterations 21
DICPBiCGStab:  Solving for p, Initial residual = 0.08531456208116155, Final residual = 0.007553266242653398, No Iterations 2
time step continuity errors : sum local = 0.1512152582096212, global = -0.02078060468181133, cumulative = -0.004490700596262762
DICPBiCGStab:  Solving for p, Initial residual = 0.04961455089230062, Final residual = 0.004378747449865953, No Iterations 21
DICPBiCGStab:  Solving for p, Initial residual = 0.2130917090362026, Final residual = 8.602683041246968e-07, No Iterations 38
time step continuity errors : sum local = 3.718927387757169e-06, global = 4.550244525997048e-07, cumulative = -0.004490245571810162
ExecutionTime = 0.03 s  ClockTime = 0 s

Myforces MyForces_Dir write:
    Sum of Myforce
        Total    : (0.2127472357788951 0.2042845189844256 -1.228269733508873e-17)
        Pressure : (0.2120821440278636 0.2043592745458733 -1.223461842474345e-17)
        Viscous  : (0.000665091751031518 -7.47555614477523e-05 -4.807891034528436e-20)


FORCE: Time to write Data at current Time:0.1000000014901161

    Sum of moments
        Total    : (0.08296835861565807 -0.08640541652565979 -0.09065123118625935)
        Pressure : (0.082998719928701 -0.08613529536725667 -0.09067346833996748)
        Viscous  : (-3.036131304293716e-05 -0.0002701211584031289 2.22371537081298e-05)



FORCE: Time to write Data at current Time:0.1000000014901161


Courant Number mean: 9.33386423876903 max: 1975.604908918012
Time = 0.2

PIMPLE: iteration 1
AMI: Creating addressing and weights between 29 source faces and 29 target faces
AMI: Patch source sum(weights) min:0.9996512037050764 max:1.005739180216314 average:1.002688862739214
AMI: Patch target sum(weights) min:0.9996512037050743 max:1.005739180216316 average:1.002688862739215
DICPBiCGStab:  Solving for pcorr, Initial residual = 1, Final residual = 0.0896559223568912, No Iterations 11
DICPBiCGStab:  Solving for pcorr, Initial residual = 0.4433505911123064, Final residual = 9.348304498735908e-07, No Iterations 45
time step continuity errors : sum local = 8.972883976606037e-10, global = -4.950047576375766e-11, cumulative = -0.004490245621310638
smoothSolver:  Solving for Ux, Initial residual = 0.5124443464711836, Final residual = 0.002011263407625186, No Iterations 4
smoothSolver:  Solving for Uy, Initial residual = 0.527555523692831, Final residual = 0.001529427931211736, No Iterations 4
DICPBiCGStab:  Solving for p, Initial residual = 0.2937908770730906, Final residual = 0.02863979474411062, No Iterations 6
DICPBiCGStab:  Solving for p, Initial residual = 0.1714052863723497, Final residual = 0.01434881917132001, No Iterations 5
time step continuity errors : sum local = 0.01316808223273574, global = -0.005187972270896186, cumulative = -0.009678217892206825
DICPBiCGStab:  Solving for p, Initial residual = 0.1942765127878635, Final residual = 0.01594094763332106, No Iterations 4
DICPBiCGStab:  Solving for p, Initial residual = 0.04095390853704219, Final residual = 8.335327247772747e-07, No Iterations 38
time step continuity errors : sum local = 4.181519746445145e-07, global = -3.322890106092013e-09, cumulative = -0.009678221215096931
PIMPLE: iteration 2
smoothSolver:  Solving for Ux, Initial residual = 0.3741050204706315, Final residual = 6.308128766210236e-07, No Iterations 23
smoothSolver:  Solving for Uy, Initial residual = 0.4310369165662584, Final residual = 7.558537990468263e-07, No Iterations 20
DICPBiCGStab:  Solving for p, Initial residual = 0.4201674164780458, Final residual = 0.04097970328009231, No Iterations 5
DICPBiCGStab:  Solving for p, Initial residual = 0.1549153082072424, Final residual = 0.01518017654153089, No Iterations 11
time step continuity errors : sum local = 0.007949414866178348, global = -0.00443694859854813, cumulative = -0.01411516981364506
DICPBiCGStab:  Solving for p, Initial residual = 0.1111289101922491, Final residual = 0.01101516955461202, No Iterations 11
DICPBiCGStab:  Solving for p, Initial residual = 0.05976363790980929, Final residual = 4.258350213816125e-07, No Iterations 34
time step continuity errors : sum local = 3.686045359078209e-07, global = 3.401790576702542e-08, cumulative = -0.01411513579573929
ExecutionTime = 0.05 s  ClockTime = 0 s

Myforces MyForces_Dir write:
    Sum of Myforce
        Total    : (0.04752165957552983 0.860547832859598 1.712795798299784e-18)
        Pressure : (0.04696150490415987 0.860547325455953 1.716225919149622e-18)
        Viscous  : (0.0005601546713699506 5.074036449570715e-07 -3.430120849838519e-21)


FORCE: Time to write Data at current Time:0.2000000029802322

    Sum of moments
        Total    : (0.3495039250040573 -0.01930050359799597 -0.3761429421732072)
        Pressure : (0.3495037189265347 -0.01907300171050345 -0.3761364013841973)
        Viscous  : (2.060775225992517e-07 -0.0002275018874925193 -6.540789009848051e-06)



FORCE: Time to write Data at current Time:0.2000000029802322


Courant Number mean: 9.399655742371198 max: 995.4980729791737
Time = 0.3

PIMPLE: iteration 1
AMI: Creating addressing and weights between 29 source faces and 29 target faces
AMI: Patch source sum(weights) min:0.9996512037050764 max:1.005739180216314 average:1.002688862739214
AMI: Patch target sum(weights) min:0.9996512037050743 max:1.005739180216316 average:1.002688862739215
DICPBiCGStab:  Solving for pcorr, Initial residual = 0.9999999999999944, Final residual = 0.09867888839687032, No Iterations 10
DICPBiCGStab:  Solving for pcorr, Initial residual = 0.256475925901185, Final residual = 9.949076367342308e-07, No Iterations 42
time step continuity errors : sum local = 1.416252366645421e-12, global = 2.953392284099218e-13, cumulative = -0.01411513579544396
smoothSolver:  Solving for Ux, Initial residual = 0.2015251459634069, Final residual = 0.000678778782644783, No Iterations 4
smoothSolver:  Solving for Uy, Initial residual = 0.2802167793522815, Final residual = 0.002460777713627047, No Iterations 3
DICPBiCGStab:  Solving for p, Initial residual = 0.4078812025309455, Final residual = 0.03771314051721741, No Iterations 3
DICPBiCGStab:  Solving for p, Initial residual = 0.1054357482067459, Final residual = 0.008029097026175335, No Iterations 7
time step continuity errors : sum local = 0.001227198189036113, global = 0.001092268254981475, cumulative = -0.01302286754046248
DICPBiCGStab:  Solving for p, Initial residual = 0.1973038174850998, Final residual = 0.01609856462813048, No Iterations 2
DICPBiCGStab:  Solving for p, Initial residual = 0.02525143454511583, Final residual = 8.967062663839383e-07, No Iterations 36
time step continuity errors : sum local = 1.109931419451503e-07, global = 1.074456812394251e-10, cumulative = -0.0130228674330168
PIMPLE: iteration 2
smoothSolver:  Solving for Ux, Initial residual = 0.1907999334430084, Final residual = 5.672320310284128e-07, No Iterations 20
smoothSolver:  Solving for Uy, Initial residual = 0.3278248433341061, Final residual = 9.733928595968814e-07, No Iterations 19
DICPBiCGStab:  Solving for p, Initial residual = 0.4129829277157548, Final residual = 0.03365759692246007, No Iterations 3
DICPBiCGStab:  Solving for p, Initial residual = 0.08006826704616581, Final residual = 0.007598148988312832, No Iterations 5
time step continuity errors : sum local = 0.0009466718421719407, global = -0.000378553120235924, cumulative = -0.01340142055325272
DICPBiCGStab:  Solving for p, Initial residual = 0.2095016112108203, Final residual = 0.01847668765856663, No Iterations 3
DICPBiCGStab:  Solving for p, Initial residual = 0.04242891609267781, Final residual = 6.239583921978883e-07, No Iterations 35
time step continuity errors : sum local = 6.285363981890288e-08, global = -1.018574489749058e-08, cumulative = -0.01340143073899762
ExecutionTime = 0.07000000000000001 s  ClockTime = 0 s

Myforces MyForces_Dir write:
    Sum of Myforce
        Total    : (0.0533957066386009 0.7587529090162254 7.275005644410612e-20)
        Pressure : (0.05288041218925343 0.7587549159094953 7.434587491686287e-20)
        Viscous  : (0.0005152944493474787 -2.00689326989148e-06 -1.595818472756738e-21)


FORCE: Time to write Data at current Time:0.300000011920929

    Sum of moments
        Total    : (0.3081608130116383 -0.02168619609039327 -0.3544205359811209)
        Pressure : (0.3081616280936687 -0.02147691378707111 -0.3544125153610806)
        Viscous  : (-8.150820304322869e-07 -0.0002092823033221581 -8.020620040319367e-06)



FORCE: Time to write Data at current Time:0.300000011920929


Courant Number mean: 9.434499696101046 max: 864.028402336251
Time = 0.4

PIMPLE: iteration 1
AMI: Creating addressing and weights between 29 source faces and 29 target faces
AMI: Patch source sum(weights) min:0.9996512037050764 max:1.005739180216314 average:1.002688862739214
AMI: Patch target sum(weights) min:0.9996512037050743 max:1.005739180216316 average:1.002688862739215
DICPBiCGStab:  Solving for pcorr, Initial residual = 0.9999999999999675, Final residual = 0.08434378944793765, No Iterations 19
DICPBiCGStab:  Solving for pcorr, Initial residual = 0.1253911018196726, Final residual = 1.794922449777716e-07, No Iterations 47
time step continuity errors : sum local = 9.433091675646962e-14, global = -3.041161918665613e-14, cumulative = -0.01340143073902803
smoothSolver:  Solving for Ux, Initial residual = 0.09701544209420944, Final residual = 0.0008247484037322247, No Iterations 3
smoothSolver:  Solving for Uy, Initial residual = 0.1535161252348215, Final residual = 0.0003987917389158851, No Iterations 4
DICPBiCGStab:  Solving for p, Initial residual = 0.3310509748440836, Final residual = 0.03218286291246675, No Iterations 2
DICPBiCGStab:  Solving for p, Initial residual = 0.05147556022249792, Final residual = 0.005109184143684725, No Iterations 5
time step continuity errors : sum local = 0.0003123743818527886, global = 0.000201499435731838, cumulative = -0.01319993130329619
DICPBiCGStab:  Solving for p, Initial residual = 0.1119114396021457, Final residual = 0.008128193293259442, No Iterations 2
DICPBiCGStab:  Solving for p, Initial residual = 0.01367552875656368, Final residual = 5.981623448804985e-07, No Iterations 33
time step continuity errors : sum local = 3.41171826337238e-08, global = 2.292254103513157e-09, cumulative = -0.01319992901104209
PIMPLE: iteration 2
smoothSolver:  Solving for Ux, Initial residual = 0.1270432961255795, Final residual = 7.258034624263809e-07, No Iterations 20
smoothSolver:  Solving for Uy, Initial residual = 0.1935657531426195, Final residual = 6.817625503595466e-07, No Iterations 18
DICPBiCGStab:  Solving for p, Initial residual = 0.3395757052144465, Final residual = 0.02866548306802285, No Iterations 2
DICPBiCGStab:  Solving for p, Initial residual = 0.0541890370886917, Final residual = 0.005298949369270799, No Iterations 9
time step continuity errors : sum local = 0.000286038291394877, global = 0.0002475721847641191, cumulative = -0.01295235682627797
DICPBiCGStab:  Solving for p, Initial residual = 0.140781115948154, Final residual = 0.01324493109011953, No Iterations 3
DICPBiCGStab:  Solving for p, Initial residual = 0.02487166086532028, Final residual = 9.708558578037336e-07, No Iterations 36
time step continuity errors : sum local = 5.058961789984698e-08, global = 2.502916973245521e-09, cumulative = -0.012952354323361
ExecutionTime = 0.08 s  ClockTime = 0 s

Myforces MyForces_Dir write:
    Sum of Myforce
        Total    : (0.03363330460666634 0.6803502305370319 3.993972905924135e-19)
        Pressure : (0.03315287457984438 0.6803565708414379 4.016540991568099e-19)
        Viscous  : (0.0004804300268219671 -6.340304405960705e-06 -2.256808564396319e-21)


FORCE: Time to write Data at current Time:0.4000000059604645

    Sum of moments
        Total    : (0.2763182555000445 -0.01365987051739495 -0.324399266921041)
        Pressure : (0.2763208305588511 -0.01346474809229267 -0.3243926781921432)
        Viscous  : (-2.575058806714035e-06 -0.0001951224251022867 -6.588728897831226e-06)



FORCE: Time to write Data at current Time:0.4000000059604645


Courant Number mean: 9.453079242495091 max: 796.7155559466461
Time = 0.5

PIMPLE: iteration 1
AMI: Creating addressing and weights between 29 source faces and 29 target faces
AMI: Patch source sum(weights) min:0.9996512037050764 max:1.005739180216314 average:1.002688862739214
AMI: Patch target sum(weights) min:0.9996512037050743 max:1.005739180216316 average:1.002688862739215
DICPBiCGStab:  Solving for pcorr, Initial residual = 0.9999999999999596, Final residual = 0.09383900321614094, No Iterations 12
DICPBiCGStab:  Solving for pcorr, Initial residual = 0.2751597498021803, Final residual = 4.253269537369191e-07, No Iterations 46
time step continuity errors : sum local = 7.94691441402067e-14, global = 2.338751230885168e-14, cumulative = -0.01295235432333761
smoothSolver:  Solving for Ux, Initial residual = 0.06531858227004221, Final residual = 0.0001776963435093966, No Iterations 4
smoothSolver:  Solving for Uy, Initial residual = 0.09596296541450736, Final residual = 0.0002227867314587174, No Iterations 4
DICPBiCGStab:  Solving for p, Initial residual = 0.163112156668566, Final residual = 0.01434664039205803, No Iterations 2
DICPBiCGStab:  Solving for p, Initial residual = 0.0218820554827871, Final residual = 0.00186028593494523, No Iterations 13
time step continuity errors : sum local = 9.825468881613005e-05, global = -7.149593799459045e-06, cumulative = -0.01295950391713707
DICPBiCGStab:  Solving for p, Initial residual = 0.06791723828903705, Final residual = 0.004802300045301048, No Iterations 2
DICPBiCGStab:  Solving for p, Initial residual = 0.007297616696319381, Final residual = 9.399463791912621e-07, No Iterations 31
time step continuity errors : sum local = 4.03976574074459e-08, global = -4.294812571819703e-09, cumulative = -0.01295950821194964
PIMPLE: iteration 2
smoothSolver:  Solving for Ux, Initial residual = 0.09624792955257176, Final residual = 6.058279472807027e-07, No Iterations 20
smoothSolver:  Solving for Uy, Initial residual = 0.1347282148184555, Final residual = 9.06091294393498e-07, No Iterations 18
DICPBiCGStab:  Solving for p, Initial residual = 0.195066884060025, Final residual = 0.01673656356469623, No Iterations 3
DICPBiCGStab:  Solving for p, Initial residual = 0.02922212285436811, Final residual = 0.002552652928642939, No Iterations 7
time step continuity errors : sum local = 0.0001249656417683467, global = -9.174425770264359e-06, cumulative = -0.01296868263771991
DICPBiCGStab:  Solving for p, Initial residual = 0.07642338115009546, Final residual = 0.007280094420851797, No Iterations 3
DICPBiCGStab:  Solving for p, Initial residual = 0.01460228456646258, Final residual = 8.491841856357527e-07, No Iterations 34
time step continuity errors : sum local = 3.911170841874952e-08, global = 1.346317641891367e-08, cumulative = -0.01296866917454349
ExecutionTime = 0.1 s  ClockTime = 0 s

Myforces MyForces_Dir write:
    Sum of Myforce
        Total    : (0.03641828478469079 0.7027501099690582 1.764879279841828e-19)
        Pressure : (0.03595531365408293 0.7027521547609213 1.789022836196824e-19)
        Viscous  : (0.000462971130607864 -2.044791863159557e-06 -2.41435563549961e-21)


FORCE: Time to write Data at current Time:0.5

    Sum of moments
        Total    : (0.2854157692955247 -0.01479096569434003 -0.332716263984581)
        Pressure : (0.2854165997697351 -0.0146029340462057 -0.3327077339125056)
        Viscous  : (-8.304742103827091e-07 -0.0001880316481343281 -8.530072075453295e-06)



FORCE: Time to write Data at current Time:0.5


Courant Number mean: 9.445630360755628 max: 766.7782267571388
Time = 0.6

PIMPLE: iteration 1
AMI: Creating addressing and weights between 29 source faces and 29 target faces
AMI: Patch source sum(weights) min:0.9996512037050764 max:1.005739180216314 average:1.002688862739214
AMI: Patch target sum(weights) min:0.9996512037050743 max:1.005739180216316 average:1.002688862739215
DICPBiCGStab:  Solving for pcorr, Initial residual = 0.9999999999999478, Final residual = 0.05618102142701437, No Iterations 20
DICPBiCGStab:  Solving for pcorr, Initial residual = 0.08359656594940769, Final residual = 6.52137663959859e-07, No Iterations 45
time step continuity errors : sum local = 4.029986539547659e-13, global = 6.730208988319206e-14, cumulative = -0.01296866917447619
smoothSolver:  Solving for Ux, Initial residual = 0.05177534512772371, Final residual = 0.0001495706431798772, No Iterations 4
smoothSolver:  Solving for Uy, Initial residual = 0.06351205488782771, Final residual = 0.0005747709203697556, No Iterations 3
DICPBiCGStab:  Solving for p, Initial residual = 0.1172692576684362, Final residual = 0.01128838474598119, No Iterations 2
DICPBiCGStab:  Solving for p, Initial residual = 0.01565712410147178, Final residual = 0.001509349568988968, No Iterations 10
time step continuity errors : sum local = 6.27767832384097e-05, global = 6.081076666069861e-05, cumulative = -0.01290785840781549
DICPBiCGStab:  Solving for p, Initial residual = 0.03865696193832052, Final residual = 0.003485084490229514, No Iterations 1
DICPBiCGStab:  Solving for p, Initial residual = 0.004541844215250324, Final residual = 7.755345218680155e-07, No Iterations 33
time step continuity errors : sum local = 3.299928187792198e-08, global = 1.082122418869372e-09, cumulative = -0.01290785732569307
PIMPLE: iteration 2
smoothSolver:  Solving for Ux, Initial residual = 0.07996576345328356, Final residual = 8.631063228035312e-07, No Iterations 19
smoothSolver:  Solving for Uy, Initial residual = 0.09315455197873089, Final residual = 8.919070814935748e-07, No Iterations 17
DICPBiCGStab:  Solving for p, Initial residual = 0.1181237949563192, Final residual = 0.01094684288712947, No Iterations 3
DICPBiCGStab:  Solving for p, Initial residual = 0.01795668992486708, Final residual = 0.001771960895172888, No Iterations 13
time step continuity errors : sum local = 8.68324175513019e-05, global = -4.048904750062549e-05, cumulative = -0.01294834637319369
DICPBiCGStab:  Solving for p, Initial residual = 0.05696708133996539, Final residual = 0.005422055837300707, No Iterations 4
DICPBiCGStab:  Solving for p, Initial residual = 0.01109466539067323, Final residual = 8.323836652547672e-07, No Iterations 29
time step continuity errors : sum local = 3.362769627642468e-08, global = 2.137543716196537e-08, cumulative = -0.01294832499775653
ExecutionTime = 0.12 s  ClockTime = 0 s

Myforces MyForces_Dir write:
    Sum of Myforce
        Total    : (0.03534137943052003 0.7033525999300331 9.276536758748152e-20)
        Pressure : (0.03489844351906517 0.703353817555869 9.465600886043807e-20)
        Viscous  : (0.0004429359114548597 -1.217625835942318e-06 -1.890641272956547e-21)


FORCE: Time to write Data at current Time:0.6000000238418579

    Sum of moments
        Total    : (0.2856604652881187 -0.01435359006713073 -0.3325661919041401)
        Pressure : (0.2856609598161305 -0.01417369554684091 -0.3325572395469462)
        Viscous  : (-4.945280118061934e-07 -0.0001798945202898217 -8.9523571939691e-06)



FORCE: Time to write Data at current Time:0.6000000238418579


Courant Number mean: 9.425713257368935 max: 742.851543688473
Time = 0.7

PIMPLE: iteration 1
AMI: Creating addressing and weights between 29 source faces and 29 target faces
AMI: Patch source sum(weights) min:0.9996512037050764 max:1.005739180216314 average:1.002688862739214
AMI: Patch target sum(weights) min:0.9996512037050743 max:1.005739180216316 average:1.002688862739215
DICPBiCGStab:  Solving for pcorr, Initial residual = 0.9999999999999393, Final residual = 0.08560349157033978, No Iterations 22
DICPBiCGStab:  Solving for pcorr, Initial residual = 0.05514964241922062, Final residual = 6.009177970671657e-07, No Iterations 42
time step continuity errors : sum local = 6.955589434353474e-13, global = 6.563875654430112e-14, cumulative = -0.01294832499769089
smoothSolver:  Solving for Ux, Initial residual = 0.0445494521153639, Final residual = 0.000121955774573837, No Iterations 4
smoothSolver:  Solving for Uy, Initial residual = 0.04362111616762327, Final residual = 0.0001157602346346831, No Iterations 4
DICPBiCGStab:  Solving for p, Initial residual = 0.08602344563924538, Final residual = 0.008339950152940534, No Iterations 2
DICPBiCGStab:  Solving for p, Initial residual = 0.01126510658566824, Final residual = 0.0008822576290111222, No Iterations 14
time step continuity errors : sum local = 3.559470796866783e-05, global = 2.173950714601611e-05, cumulative = -0.01292658549054488
DICPBiCGStab:  Solving for p, Initial residual = 0.02666695134408115, Final residual = 0.002162236841721168, No Iterations 1
DICPBiCGStab:  Solving for p, Initial residual = 0.002743388602403582, Final residual = 9.753768793602125e-07, No Iterations 27
time step continuity errors : sum local = 4.219798443127499e-08, global = -3.492047835833172e-08, cumulative = -0.01292662041102324
PIMPLE: iteration 2
smoothSolver:  Solving for Ux, Initial residual = 0.06675387203377292, Final residual = 6.971930685635259e-07, No Iterations 19
smoothSolver:  Solving for Uy, Initial residual = 0.06130280992050596, Final residual = 8.044629190700211e-07, No Iterations 17
DICPBiCGStab:  Solving for p, Initial residual = 0.08115854000189268, Final residual = 0.007144124883888363, No Iterations 3
DICPBiCGStab:  Solving for p, Initial residual = 0.01177214117775775, Final residual = 0.001045985646217948, No Iterations 14
time step continuity errors : sum local = 5.134216007963136e-05, global = -3.977607280336211e-05, cumulative = -0.0129663964838266
DICPBiCGStab:  Solving for p, Initial residual = 0.03366407297357422, Final residual = 0.003244693644526684, No Iterations 4
DICPBiCGStab:  Solving for p, Initial residual = 0.006732800121076706, Final residual = 7.88604412163495e-07, No Iterations 32
time step continuity errors : sum local = 3.459502877027545e-08, global = -6.600871020819029e-09, cumulative = -0.01296640308469762
ExecutionTime = 0.14 s  ClockTime = 0 s

Myforces MyForces_Dir write:
    Sum of Myforce
        Total    : (0.03658461111018828 0.7152289372917768 9.621557660196593e-20)
        Pressure : (0.03616161802936549 0.7152279483792274 9.810833005793921e-20)
        Viscous  : (0.0004229930808227874 9.889125493670817e-07 -1.892753455973281e-21)


FORCE: Time to write Data at current Time:0.699999988079071

    Sum of moments
        Total    : (0.2904839351338431 -0.01485851766690116 -0.3371614813375083)
        Pressure : (0.2904835334957188 -0.01468672275167157 -0.3371516661634048)
        Viscous  : (4.016381243341633e-07 -0.0001717949152295907 -9.815174103520463e-06)



FORCE: Time to write Data at current Time:0.699999988079071


Courant Number mean: 9.405129882903697 max: 711.6774860249383
Time = 0.8

PIMPLE: iteration 1
AMI: Creating addressing and weights between 29 source faces and 29 target faces
AMI: Patch source sum(weights) min:0.9996512037050764 max:1.005739180216314 average:1.002688862739214
AMI: Patch target sum(weights) min:0.9996512037050743 max:1.005739180216316 average:1.002688862739215
DICPBiCGStab:  Solving for pcorr, Initial residual = 0.9999999999999409, Final residual = 0.08810935015282662, No Iterations 7
DICPBiCGStab:  Solving for pcorr, Initial residual = 0.2366228916292703, Final residual = 8.433147012462595e-07, No Iterations 45
time step continuity errors : sum local = 7.264949937483024e-14, global = 7.953901382023108e-15, cumulative = -0.01296640308468967
smoothSolver:  Solving for Ux, Initial residual = 0.0321338198664386, Final residual = 0.0003138993671365371, No Iterations 3
smoothSolver:  Solving for Uy, Initial residual = 0.02668661268558191, Final residual = 8.873670454009143e-05, No Iterations 4
DICPBiCGStab:  Solving for p, Initial residual = 0.06882254238569738, Final residual = 0.005852529615107435, No Iterations 2
DICPBiCGStab:  Solving for p, Initial residual = 0.008093005321677924, Final residual = 0.0006236175928425255, No Iterations 15
time step continuity errors : sum local = 2.454776790358594e-05, global = 8.167941186495883e-06, cumulative = -0.01295823514350317
DICPBiCGStab:  Solving for p, Initial residual = 0.02235140426010122, Final residual = 0.002044720427001507, No Iterations 1
DICPBiCGStab:  Solving for p, Initial residual = 0.002505385372718151, Final residual = 7.097658625594934e-07, No Iterations 28
time step continuity errors : sum local = 2.997308548234142e-08, global = -8.669279137985447e-09, cumulative = -0.01295824381278231
PIMPLE: iteration 2
smoothSolver:  Solving for Ux, Initial residual = 0.04619914419775554, Final residual = 8.307230393618556e-07, No Iterations 18
smoothSolver:  Solving for Uy, Initial residual = 0.03935498736020439, Final residual = 5.555569340696654e-07, No Iterations 16
DICPBiCGStab:  Solving for p, Initial residual = 0.0681934065280782, Final residual = 0.006017733140434529, No Iterations 2
DICPBiCGStab:  Solving for p, Initial residual = 0.009634070609201477, Final residual = 0.000953623646449731, No Iterations 13
time step continuity errors : sum local = 4.540182541247793e-05, global = -3.919195050855341e-05, cumulative = -0.01299743576329086
DICPBiCGStab:  Solving for p, Initial residual = 0.02420640276221181, Final residual = 0.002043146491002483, No Iterations 4
DICPBiCGStab:  Solving for p, Initial residual = 0.004393419550165955, Final residual = 9.396997601951025e-07, No Iterations 28
time step continuity errors : sum local = 4.291173062930441e-08, global = -1.982307683230918e-08, cumulative = -0.01299745558636769
ExecutionTime = 0.16 s  ClockTime = 0 s

Myforces MyForces_Dir write:
    Sum of Myforce
        Total    : (0.03563798013034315 0.7162232364962721 1.041647666232101e-19)
        Pressure : (0.03522662671284518 0.7162185924908733 1.060426469226576e-19)
        Viscous  : (0.0004113534174979677 4.644005398782114e-06 -1.877880299447489e-21)


FORCE: Time to write Data at current Time:0.800000011920929

    Sum of moments
        Total    : (0.2908877610007269 -0.01447405182972986 -0.3369731818016442)
        Pressure : (0.2908858748788257 -0.01430698426126986 -0.3369621461945886)
        Viscous  : (1.886121901232182e-06 -0.0001670675684599964 -1.103560705552469e-05)



FORCE: Time to write Data at current Time:0.800000011920929


Courant Number mean: 9.38899964097657 max: 684.9170016389528
Time = 0.9

PIMPLE: iteration 1
AMI: Creating addressing and weights between 29 source faces and 29 target faces
AMI: Patch source sum(weights) min:0.9996512037050764 max:1.005739180216314 average:1.002688862739214
AMI: Patch target sum(weights) min:0.9996512037050743 max:1.005739180216316 average:1.002688862739215
DICPBiCGStab:  Solving for pcorr, Initial residual = 0.9999999999999524, Final residual = 0.04658582454724215, No Iterations 21
DICPBiCGStab:  Solving for pcorr, Initial residual = 0.05644447068588992, Final residual = 9.431830484486759e-07, No Iterations 44
time step continuity errors : sum local = 1.201077583018941e-12, global = 8.277912396772169e-14, cumulative = -0.01299745558628491
smoothSolver:  Solving for Ux, Initial residual = 0.02074158647384601, Final residual = 0.0001745733760519049, No Iterations 3
smoothSolver:  Solving for Uy, Initial residual = 0.01933838623907495, Final residual = 5.813265563772733e-05, No Iterations 4
DICPBiCGStab:  Solving for p, Initial residual = 0.0625711697238235, Final residual = 0.005453538418104885, No Iterations 1
DICPBiCGStab:  Solving for p, Initial residual = 0.00691276050360479, Final residual = 0.0006790403807560076, No Iterations 13
time step continuity errors : sum local = 2.656310197454428e-05, global = 9.197275508411915e-06, cumulative = -0.0129882583107765
DICPBiCGStab:  Solving for p, Initial residual = 0.01965252014850875, Final residual = 0.001726736488529544, No Iterations 1
DICPBiCGStab:  Solving for p, Initial residual = 0.002144522474817662, Final residual = 9.455176544091677e-07, No Iterations 27
time step continuity errors : sum local = 3.872771151581999e-08, global = 1.511760201532493e-08, cumulative = -0.01298824319317449
PIMPLE: iteration 2
smoothSolver:  Solving for Ux, Initial residual = 0.0306733259837456, Final residual = 8.867667086915575e-07, No Iterations 17
smoothSolver:  Solving for Uy, Initial residual = 0.03035531778828004, Final residual = 7.465522877046057e-07, No Iterations 15
DICPBiCGStab:  Solving for p, Initial residual = 0.0585535029707044, Final residual = 0.005776989996644924, No Iterations 2
DICPBiCGStab:  Solving for p, Initial residual = 0.008336136625488917, Final residual = 0.0008273879045020087, No Iterations 13
time step continuity errors : sum local = 3.930091969119828e-05, global = -3.071425744860845e-05, cumulative = -0.0130189574506231
DICPBiCGStab:  Solving for p, Initial residual = 0.02062432002431936, Final residual = 0.001899063227903083, No Iterations 3
DICPBiCGStab:  Solving for p, Initial residual = 0.00369514663614571, Final residual = 4.62272442329018e-07, No Iterations 31
time step continuity errors : sum local = 2.141629964363972e-08, global = 1.17723717518955e-09, cumulative = -0.01301895627338592
ExecutionTime = 0.17 s  ClockTime = 0 s

Myforces MyForces_Dir write:
    Sum of Myforce
        Total    : (0.03597270513496387 0.7184644898990264 7.806939912020635e-20)
        Pressure : (0.03557396144991354 0.718459451979786 7.977555928504386e-20)
        Viscous  : (0.0003987436850503309 5.037919240404457e-06 -1.706160164837506e-21)


FORCE: Time to write Data at current Time:0.8999999761581421

    Sum of moments
        Total    : (0.2917980263355292 -0.01460999744302971 -0.3381333170952499)
        Pressure : (0.2917959802289897 -0.01444805120637187 -0.3381220822109797)
        Viscous  : (2.046106539509574e-06 -0.0001619462366578406 -1.123488427013756e-05)



FORCE: Time to write Data at current Time:0.8999999761581421


Courant Number mean: 9.377937148621644 max: 679.4653812044651
Time = 1

PIMPLE: iteration 1
AMI: Creating addressing and weights between 29 source faces and 29 target faces
AMI: Patch source sum(weights) min:0.9996512037050764 max:1.005739180216314 average:1.002688862739214
AMI: Patch target sum(weights) min:0.9996512037050743 max:1.005739180216316 average:1.002688862739215
DICPBiCGStab:  Solving for pcorr, Initial residual = 0.9999999999999046, Final residual = 0.09221215866548592, No Iterations 16
DICPBiCGStab:  Solving for pcorr, Initial residual = 0.1447421842765239, Final residual = 9.585406397191004e-07, No Iterations 41
time step continuity errors : sum local = 1.367911334686815e-13, global = -1.413547920903716e-14, cumulative = -0.01301895627340006
smoothSolver:  Solving for Ux, Initial residual = 0.01330289868049488, Final residual = 9.552166614853326e-05, No Iterations 3
smoothSolver:  Solving for Uy, Initial residual = 0.0162577722698767, Final residual = 3.746780756800148e-05, No Iterations 4
DICPBiCGStab:  Solving for p, Initial residual = 0.05943752881515516, Final residual = 0.0051232677250764, No Iterations 1
DICPBiCGStab:  Solving for p, Initial residual = 0.006473619062994078, Final residual = 0.0006358557844879491, No Iterations 14
time step continuity errors : sum local = 2.501862241418658e-05, global = 9.092097971028199e-06, cumulative = -0.01300986417542903
DICPBiCGStab:  Solving for p, Initial residual = 0.0187766116070133, Final residual = 0.001622008975538838, No Iterations 1
DICPBiCGStab:  Solving for p, Initial residual = 0.001979406683897171, Final residual = 5.033451998131844e-07, No Iterations 27
time step continuity errors : sum local = 2.067432654892036e-08, global = 3.720501082859904e-09, cumulative = -0.01300986045492795
PIMPLE: iteration 2
smoothSolver:  Solving for Ux, Initial residual = 0.01971061341976359, Final residual = 8.574076904625171e-07, No Iterations 16
smoothSolver:  Solving for Uy, Initial residual = 0.02633861033062471, Final residual = 8.061485904065522e-07, No Iterations 15
DICPBiCGStab:  Solving for p, Initial residual = 0.05143453306693817, Final residual = 0.004185824578261477, No Iterations 2
DICPBiCGStab:  Solving for p, Initial residual = 0.00651464537656121, Final residual = 0.0006453183733743995, No Iterations 10
time step continuity errors : sum local = 3.084496207058649e-05, global = -2.700871749519443e-05, cumulative = -0.01303686917242314
DICPBiCGStab:  Solving for p, Initial residual = 0.01627364080320757, Final residual = 0.001503671653340914, No Iterations 3
DICPBiCGStab:  Solving for p, Initial residual = 0.002806407867533035, Final residual = 3.215079410271178e-07, No Iterations 32
time step continuity errors : sum local = 1.525365229236238e-08, global = 5.801300920662203e-09, cumulative = -0.01303686337112222
ExecutionTime = 0.19 s  ClockTime = 0 s

Myforces MyForces_Dir write:
    Sum of Myforce
        Total    : (0.03537751191957728 0.7178466864393335 6.84248142847349e-20)
        Pressure : (0.03499245993557043 0.7178415281396514 7.003584231942368e-20)
        Viscous  : (0.0003850519840068525 5.158299682060223e-06 -1.611028034688791e-21)


FORCE: Time to write Data at current Time:1

    Sum of moments
        Total    : (0.2915471109002696 -0.01436826495940686 -0.3382053309108489)
        Pressure : (0.2915450159022737 -0.01421187948656941 -0.3381939141019223)
        Viscous  : (2.094997995911948e-06 -0.0001563854728374539 -1.141680892660564e-05)



FORCE: Time to write Data at current Time:1


Courant Number mean: 9.370680569812633 max: 678.6537255577833
Time = 1.1

PIMPLE: iteration 1
AMI: Creating addressing and weights between 29 source faces and 29 target faces
AMI: Patch source sum(weights) min:0.9996512037050764 max:1.005739180216314 average:1.002688862739214
AMI: Patch target sum(weights) min:0.9996512037050743 max:1.005739180216316 average:1.002688862739215
DICPBiCGStab:  Solving for pcorr, Initial residual = 0.9999999999998661, Final residual = 0.06415214070596181, No Iterations 20
DICPBiCGStab:  Solving for pcorr, Initial residual = 0.0940827896075522, Final residual = 3.80673376211793e-07, No Iterations 43
time step continuity errors : sum local = 9.856173541421688e-14, global = 7.356329902905638e-16, cumulative = -0.01303686337112148
smoothSolver:  Solving for Ux, Initial residual = 0.008244492916749583, Final residual = 6.089902435293249e-05, No Iterations 3
smoothSolver:  Solving for Uy, Initial residual = 0.01344789639280925, Final residual = 0.0001180715413913548, No Iterations 3
DICPBiCGStab:  Solving for p, Initial residual = 0.05737495131507625, Final residual = 0.004279138964987612, No Iterations 1
DICPBiCGStab:  Solving for p, Initial residual = 0.005722906354376387, Final residual = 0.0005604682913566122, No Iterations 12
time step continuity errors : sum local = 2.230290807525224e-05, global = 1.179948436728129e-05, cumulative = -0.0130250638867542
DICPBiCGStab:  Solving for p, Initial residual = 0.01843111248165211, Final residual = 0.001526296368850611, No Iterations 1
DICPBiCGStab:  Solving for p, Initial residual = 0.001857326929189316, Final residual = 9.177883279736737e-07, No Iterations 25
time step continuity errors : sum local = 3.741423919704013e-08, global = 1.180652509859849e-08, cumulative = -0.01302505208022911
PIMPLE: iteration 2
smoothSolver:  Solving for Ux, Initial residual = 0.0131202196604636, Final residual = 5.770150989930471e-07, No Iterations 16
smoothSolver:  Solving for Uy, Initial residual = 0.02085215162156289, Final residual = 9.635823301624771e-07, No Iterations 15
DICPBiCGStab:  Solving for p, Initial residual = 0.04803284634991257, Final residual = 0.004789910606011601, No Iterations 1
DICPBiCGStab:  Solving for p, Initial residual = 0.006481904707032444, Final residual = 0.0006308956988094611, No Iterations 10
time step continuity errors : sum local = 3.036449558535617e-05, global = -2.729643577520713e-05, cumulative = -0.01305234851600431
DICPBiCGStab:  Solving for p, Initial residual = 0.01519265143508034, Final residual = 0.001368949034843208, No Iterations 3
DICPBiCGStab:  Solving for p, Initial residual = 0.002534574811598811, Final residual = 8.389911935850154e-07, No Iterations 26
time step continuity errors : sum local = 3.993156364581089e-08, global = -1.035834301415657e-08, cumulative = -0.01305235887434733
ExecutionTime = 0.21 s  ClockTime = 0 s

Myforces MyForces_Dir write:
    Sum of Myforce
        Total    : (0.03537487775429823 0.7180226195166765 5.60309435557713e-20)
        Pressure : (0.03500164304723798 0.7180169509331457 5.750097889704353e-20)
        Viscous  : (0.0003732347070602497 5.668583530754498e-06 -1.470035341272235e-21)


FORCE: Time to write Data at current Time:1.100000023841858

    Sum of moments
        Total    : (0.2916185645705031 -0.01436719511637319 -0.3380841738012438)
        Pressure : (0.2916162623252152 -0.01421560912651389 -0.3380724074809828)
        Viscous  : (2.302245287898244e-06 -0.0001515859898592991 -1.176632026108432e-05)



FORCE: Time to write Data at current Time:1.100000023841858


Courant Number mean: 9.366272099417257 max: 678.2543482986498
Time = 1.2

PIMPLE: iteration 1
AMI: Creating addressing and weights between 29 source faces and 29 target faces
AMI: Patch source sum(weights) min:0.9996512037050764 max:1.005739180216314 average:1.002688862739214
AMI: Patch target sum(weights) min:0.9996512037050743 max:1.005739180216316 average:1.002688862739215
DICPBiCGStab:  Solving for pcorr, Initial residual = 0.9999999999999488, Final residual = 0.09027743401272822, No Iterations 20
DICPBiCGStab:  Solving for pcorr, Initial residual = 0.1417237132524354, Final residual = 9.972510571293085e-07, No Iterations 45
time step continuity errors : sum local = 2.932336385558643e-13, global = 1.095779879846228e-14, cumulative = -0.01305235887433637
smoothSolver:  Solving for Ux, Initial residual = 0.005710104753902564, Final residual = 4.713572174692298e-05, No Iterations 3
smoothSolver:  Solving for Uy, Initial residual = 0.01032196341942761, Final residual = 9.160464023900766e-05, No Iterations 3
DICPBiCGStab:  Solving for p, Initial residual = 0.05674037368275282, Final residual = 0.00428439195179531, No Iterations 1
DICPBiCGStab:  Solving for p, Initial residual = 0.005727621562551126, Final residual = 0.0005579101700859905, No Iterations 11
time step continuity errors : sum local = 2.231042278261531e-05, global = 1.52706868339052e-05, cumulative = -0.01303708818750246
DICPBiCGStab:  Solving for p, Initial residual = 0.01828234223903957, Final residual = 0.00155271140213106, No Iterations 1
DICPBiCGStab:  Solving for p, Initial residual = 0.001895205531749156, Final residual = 2.981805844308354e-07, No Iterations 29
time step continuity errors : sum local = 1.211342777379466e-08, global = 6.866886142824261e-10, cumulative = -0.01303708750081385
PIMPLE: iteration 2
smoothSolver:  Solving for Ux, Initial residual = 0.0093013233556402, Final residual = 8.971435096632863e-07, No Iterations 15
smoothSolver:  Solving for Uy, Initial residual = 0.01576550433762837, Final residual = 6.396004990313154e-07, No Iterations 16
DICPBiCGStab:  Solving for p, Initial residual = 0.04569948283290169, Final residual = 0.004207876092218983, No Iterations 1
DICPBiCGStab:  Solving for p, Initial residual = 0.00592951946350014, Final residual = 0.0005875289329918971, No Iterations 9
time step continuity errors : sum local = 2.843316689725251e-05, global = -2.565026734999647e-05, cumulative = -0.01306273776816385
DICPBiCGStab:  Solving for p, Initial residual = 0.01456849399938347, Final residual = 0.001301472268570312, No Iterations 3
DICPBiCGStab:  Solving for p, Initial residual = 0.002536939148894155, Final residual = 8.404660225393684e-07, No Iterations 26
time step continuity errors : sum local = 4.032057642031516e-08, global = 2.025547051208e-08, cumulative = -0.01306271751269333
ExecutionTime = 0.22 s  ClockTime = 0 s

Myforces MyForces_Dir write:
    Sum of Myforce
        Total    : (0.03545527550442713 0.7169701430264377 5.524355378661776e-20)
        Pressure : (0.03509101913021918 0.7169636557252836 5.675663243625009e-20)
        Viscous  : (0.0003642563742079525 6.487301154033105e-06 -1.51307864963233e-21)


FORCE: Time to write Data at current Time:1.200000047683716

    Sum of moments
        Total    : (0.2911911105112783 -0.01439984795466827 -0.3377329579785149)
        Pressure : (0.2911884757510367 -0.01425190843564075 -0.3377207947534765)
        Viscous  : (2.634760241605129e-06 -0.0001479395190275228 -1.216322503841348e-05)



FORCE: Time to write Data at current Time:1.200000047683716


Courant Number mean: 9.363327245302257 max: 677.8157877467124
Time = 1.3

PIMPLE: iteration 1
AMI: Creating addressing and weights between 29 source faces and 29 target faces
AMI: Patch source sum(weights) min:0.9996512037050764 max:1.005739180216314 average:1.002688862739214
AMI: Patch target sum(weights) min:0.9996512037050743 max:1.005739180216316 average:1.002688862739215
DICPBiCGStab:  Solving for pcorr, Initial residual = 0.9999999999999494, Final residual = 0.09792423605668621, No Iterations 21
DICPBiCGStab:  Solving for pcorr, Initial residual = 0.05374888522027702, Final residual = 7.920081920985735e-07, No Iterations 45
time step continuity errors : sum local = 4.737746758164328e-13, global = 4.691429439100836e-13, cumulative = -0.01306271751222419
smoothSolver:  Solving for Ux, Initial residual = 0.004135578398222615, Final residual = 3.979916642094125e-05, No Iterations 3
smoothSolver:  Solving for Uy, Initial residual = 0.007887665380845503, Final residual = 7.472976518661922e-05, No Iterations 3
DICPBiCGStab:  Solving for p, Initial residual = 0.05502037647263738, Final residual = 0.003998264557071094, No Iterations 1
DICPBiCGStab:  Solving for p, Initial residual = 0.005406143791664355, Final residual = 0.0005359473840238209, No Iterations 10
time step continuity errors : sum local = 2.161739412754349e-05, global = 1.813129754786942e-05, cumulative = -0.01304458621467632
DICPBiCGStab:  Solving for p, Initial residual = 0.01760742096458556, Final residual = 0.001433361752426367, No Iterations 1
DICPBiCGStab:  Solving for p, Initial residual = 0.00176430590698932, Final residual = 5.962742528744574e-07, No Iterations 28
time step continuity errors : sum local = 2.425704824538209e-08, global = 9.967781813918492e-09, cumulative = -0.01304457624689451
PIMPLE: iteration 2
smoothSolver:  Solving for Ux, Initial residual = 0.006667155411136536, Final residual = 6.3192352097137e-07, No Iterations 15
smoothSolver:  Solving for Uy, Initial residual = 0.01149519903962819, Final residual = 9.216682783769658e-07, No Iterations 15
DICPBiCGStab:  Solving for p, Initial residual = 0.04360152788618026, Final residual = 0.003793990012064779, No Iterations 1
DICPBiCGStab:  Solving for p, Initial residual = 0.005480722598094668, Final residual = 0.0005400822656587217, No Iterations 9
time step continuity errors : sum local = 2.623589461929159e-05, global = -2.225211196970798e-05, cumulative = -0.01306682835886422
DICPBiCGStab:  Solving for p, Initial residual = 0.0132213559135684, Final residual = 0.001230226731515076, No Iterations 3
DICPBiCGStab:  Solving for p, Initial residual = 0.002270965324416884, Final residual = 8.174712191343915e-07, No Iterations 26
time step continuity errors : sum local = 3.94450125491864e-08, global = -4.851650767905446e-09, cumulative = -0.01306683321051499
ExecutionTime = 0.25 s  ClockTime = 0 s

Myforces MyForces_Dir write:
    Sum of Myforce
        Total    : (0.03558039172472938 0.7164127064828871 6.311604590862338e-20)
        Pressure : (0.03522218155373312 0.7164056562467539 6.446686216200659e-20)
        Viscous  : (0.0003582101709962612 7.050236133253191e-06 -1.350816253383216e-21)


FORCE: Time to write Data at current Time:1.299999952316284

    Sum of moments
        Total    : (0.2909647125674659 -0.01445066280586834 -0.337317292979804)
        Pressure : (0.2909618491761392 -0.01430517889903711 -0.3373049163961648)
        Viscous  : (2.863391326649756e-06 -0.000145483906831236 -1.237658363916904e-05)



FORCE: Time to write Data at current Time:1.299999952316284


Courant Number mean: 9.361319609990458 max: 677.3018130861124
Time = 1.4

PIMPLE: iteration 1
AMI: Creating addressing and weights between 29 source faces and 29 target faces
AMI: Patch source sum(weights) min:0.9996512037050764 max:1.005739180216314 average:1.002688862739214
AMI: Patch target sum(weights) min:0.9996512037050743 max:1.005739180216316 average:1.002688862739215
DICPBiCGStab:  Solving for pcorr, Initial residual = 0.9999999999999483, Final residual = 0.08694700618357905, No Iterations 10
DICPBiCGStab:  Solving for pcorr, Initial residual = 0.2738431633593489, Final residual = 8.376478589234643e-07, No Iterations 46
time step continuity errors : sum local = 8.989933519870495e-14, global = -2.186978665140684e-15, cumulative = -0.01306683321051717
smoothSolver:  Solving for Ux, Initial residual = 0.003244382572191562, Final residual = 3.555348367763233e-05, No Iterations 3
smoothSolver:  Solving for Uy, Initial residual = 0.005704186745878827, Final residual = 6.185903329014617e-05, No Iterations 3
DICPBiCGStab:  Solving for p, Initial residual = 0.05400233961197715, Final residual = 0.003849071296489736, No Iterations 1
DICPBiCGStab:  Solving for p, Initial residual = 0.005228372340850205, Final residual = 0.0005183385125103783, No Iterations 10
time step continuity errors : sum local = 2.098583730596233e-05, global = 1.778659330186883e-05, cumulative = -0.0130490466172153
DICPBiCGStab:  Solving for p, Initial residual = 0.01725616873961573, Final residual = 0.00132947586009634, No Iterations 1
DICPBiCGStab:  Solving for p, Initial residual = 0.001694446721804438, Final residual = 7.871254536879198e-07, No Iterations 29
time step continuity errors : sum local = 3.208200172086167e-08, global = 6.521732819714788e-09, cumulative = -0.01304904009548248
PIMPLE: iteration 2
smoothSolver:  Solving for Ux, Initial residual = 0.005135049283428296, Final residual = 4.941914903060743e-07, No Iterations 15
smoothSolver:  Solving for Uy, Initial residual = 0.009362448401500967, Final residual = 8.463374835015596e-07, No Iterations 15
DICPBiCGStab:  Solving for p, Initial residual = 0.0432149177997416, Final residual = 0.003761624678804578, No Iterations 1
DICPBiCGStab:  Solving for p, Initial residual = 0.005417819165716112, Final residual = 0.0005386046469941646, No Iterations 9
time step continuity errors : sum local = 2.619307908003345e-05, global = -2.117897518473798e-05, cumulative = -0.01307021907066722
DICPBiCGStab:  Solving for p, Initial residual = 0.01281044676499246, Final residual = 0.001243619047089471, No Iterations 3
DICPBiCGStab:  Solving for p, Initial residual = 0.002205914430483542, Final residual = 8.324454532990232e-07, No Iterations 27
time step continuity errors : sum local = 4.022748164980072e-08, global = -2.925364370989226e-09, cumulative = -0.01307022199603159
ExecutionTime = 0.25 s  ClockTime = 0 s

Myforces MyForces_Dir write:
    Sum of Myforce
        Total    : (0.03580761577380919 0.716124432595421 7.181275426532628e-20)
        Pressure : (0.03545346566805208 0.7161167636321356 7.311419244618086e-20)
        Viscous  : (0.0003541501057571134 7.668963285415693e-06 -1.301438180854582e-21)


FORCE: Time to write Data at current Time:1.399999976158142

    Sum of moments
        Total    : (0.2908476326663862 -0.01454294785264466 -0.3368708449944433)
        Pressure : (0.2908445179844747 -0.01439911290556054 -0.3368582535261849)
        Viscous  : (3.114681911472668e-06 -0.0001438349470841185 -1.259146825831925e-05)



FORCE: Time to write Data at current Time:1.399999976158142


Courant Number mean: 9.359817924521421 max: 676.741657735541
Time = 1.5

PIMPLE: iteration 1
AMI: Creating addressing and weights between 29 source faces and 29 target faces
AMI: Patch source sum(weights) min:0.9996512037050764 max:1.005739180216314 average:1.002688862739214
AMI: Patch target sum(weights) min:0.9996512037050743 max:1.005739180216316 average:1.002688862739215
DICPBiCGStab:  Solving for pcorr, Initial residual = 0.9999999999999493, Final residual = 0.09536892212946212, No Iterations 9
DICPBiCGStab:  Solving for pcorr, Initial residual = 0.3305382448621134, Final residual = 9.067650556360042e-07, No Iterations 39
time step continuity errors : sum local = 1.123163338294688e-13, global = 2.776684415010286e-14, cumulative = -0.01307022199600383
smoothSolver:  Solving for Ux, Initial residual = 0.002862964917979239, Final residual = 3.227316687040463e-05, No Iterations 3
smoothSolver:  Solving for Uy, Initial residual = 0.004594385562669803, Final residual = 5.354119134437562e-05, No Iterations 3
DICPBiCGStab:  Solving for p, Initial residual = 0.05407957936946378, Final residual = 0.003905398623703076, No Iterations 1
DICPBiCGStab:  Solving for p, Initial residual = 0.005249180477783545, Final residual = 0.000512803378586899, No Iterations 9
time step continuity errors : sum local = 2.083282061922541e-05, global = 1.840047098104749e-05, cumulative = -0.01305182152502278
DICPBiCGStab:  Solving for p, Initial residual = 0.01728363956537137, Final residual = 0.001296751903610547, No Iterations 1
DICPBiCGStab:  Solving for p, Initial residual = 0.001688589321686964, Final residual = 5.86174543758328e-07, No Iterations 28
time step continuity errors : sum local = 2.390493065894882e-08, global = 1.676402329393618e-09, cumulative = -0.01305181984862045
PIMPLE: iteration 2
smoothSolver:  Solving for Ux, Initial residual = 0.004528686908627661, Final residual = 8.838743867004284e-07, No Iterations 14
smoothSolver:  Solving for Uy, Initial residual = 0.008140239477210756, Final residual = 9.069220814821519e-07, No Iterations 15
DICPBiCGStab:  Solving for p, Initial residual = 0.04251393601922419, Final residual = 0.003753110984797889, No Iterations 1
DICPBiCGStab:  Solving for p, Initial residual = 0.005346424541302443, Final residual = 0.0005296130812928499, No Iterations 10
time step continuity errors : sum local = 2.585578903113647e-05, global = -2.118691592132918e-05, cumulative = -0.01307300676454178
DICPBiCGStab:  Solving for p, Initial residual = 0.01258482484739258, Final residual = 0.001122521731468052, No Iterations 4
DICPBiCGStab:  Solving for p, Initial residual = 0.002364562409208554, Final residual = 6.841317528728827e-07, No Iterations 29
time step continuity errors : sum local = 3.313967825413602e-08, global = -3.178756486025418e-09, cumulative = -0.01307300994329827
ExecutionTime = 0.27 s  ClockTime = 0 s

Myforces MyForces_Dir write:
    Sum of Myforce
        Total    : (0.03586188690955884 0.7146953775163654 7.406587640418796e-20)
        Pressure : (0.03551074039209052 0.7146868927830388 7.534659981171203e-20)
        Viscous  : (0.0003511465174683201 8.484733326564927e-06 -1.280723407524075e-21)


FORCE: Time to write Data at current Time:1.5

    Sum of moments
        Total    : (0.2902672345291702 -0.01456498959656015 -0.3360225297074745)
        Pressure : (0.2902637885294395 -0.01442237453041227 -0.3360096662695374)
        Viscous  : (3.445999730651807e-06 -0.0001426150661478769 -1.286343793708403e-05)



FORCE: Time to write Data at current Time:1.5


Courant Number mean: 9.358614158632596 max: 676.0816344338452
Time = 1.6

PIMPLE: iteration 1
AMI: Creating addressing and weights between 29 source faces and 29 target faces
AMI: Patch source sum(weights) min:0.9996512037050764 max:1.005739180216314 average:1.002688862739214
AMI: Patch target sum(weights) min:0.9996512037050743 max:1.005739180216316 average:1.002688862739215
DICPBiCGStab:  Solving for pcorr, Initial residual = 0.9999999999999384, Final residual = 0.08404116802695413, No Iterations 10
DICPBiCGStab:  Solving for pcorr, Initial residual = 0.2981642205766901, Final residual = 4.752439379644785e-07, No Iterations 47
time step continuity errors : sum local = 5.773292871397739e-14, global = -4.395026575189907e-15, cumulative = -0.01307300994330266
smoothSolver:  Solving for Ux, Initial residual = 0.002648898058802181, Final residual = 2.971686656885934e-05, No Iterations 3
smoothSolver:  Solving for Uy, Initial residual = 0.004212809363095946, Final residual = 4.793057470525452e-05, No Iterations 3
DICPBiCGStab:  Solving for p, Initial residual = 0.05384531751025182, Final residual = 0.003926646901800805, No Iterations 1
DICPBiCGStab:  Solving for p, Initial residual = 0.005237723744123462, Final residual = 0.0005083308188947151, No Iterations 10
time step continuity errors : sum local = 2.071415922379146e-05, global = 1.736975091227428e-05, cumulative = -0.01305564019239039
DICPBiCGStab:  Solving for p, Initial residual = 0.0170069295400218, Final residual = 0.001280042857040979, No Iterations 1
DICPBiCGStab:  Solving for p, Initial residual = 0.001673159600400673, Final residual = 3.239026790984586e-07, No Iterations 33
time step continuity errors : sum local = 1.32540705073723e-08, global = -1.25609617140171e-09, cumulative = -0.01305564144848656
PIMPLE: iteration 2
smoothSolver:  Solving for Ux, Initial residual = 0.004030292147910065, Final residual = 8.366654816050198e-07, No Iterations 14
smoothSolver:  Solving for Uy, Initial residual = 0.007513590840130967, Final residual = 8.893885445050661e-07, No Iterations 15
DICPBiCGStab:  Solving for p, Initial residual = 0.04232150593971315, Final residual = 0.003789598768779698, No Iterations 1
DICPBiCGStab:  Solving for p, Initial residual = 0.005421582623496184, Final residual = 0.0005200445398182774, No Iterations 10
time step continuity errors : sum local = 2.545133911979335e-05, global = -1.966487082463652e-05, cumulative = -0.0130753063193112
DICPBiCGStab:  Solving for p, Initial residual = 0.01255088472328582, Final residual = 0.001215883695705348, No Iterations 4
DICPBiCGStab:  Solving for p, Initial residual = 0.00251638833302468, Final residual = 5.216380293429049e-07, No Iterations 29
time step continuity errors : sum local = 2.53935188685853e-08, global = -1.214792712957231e-08, cumulative = -0.01307531846723833
ExecutionTime = 0.29 s  ClockTime = 0 s

Myforces MyForces_Dir write:
    Sum of Myforce
        Total    : (0.03568679037983591 0.7111306213547016 7.676159703779694e-20)
        Pressure : (0.03533802968063872 0.7111212827950673 7.802601528111996e-20)
        Viscous  : (0.0003487606991971924 9.338559634360347e-06 -1.264418243323024e-21)


FORCE: Time to write Data at current Time:1.600000023841858

    Sum of moments
        Total    : (0.2888194402025682 -0.01449387568277643 -0.3344032333488017)
        Pressure : (0.2888156474288007 -0.01435222959571172 -0.3343901129776326)
        Viscous  : (3.792773767435551e-06 -0.00014164608706471 -1.312037116909776e-05)



FORCE: Time to write Data at current Time:1.600000023841858


Courant Number mean: 9.357583077620879 max: 675.3985295376123
Time = 1.7

PIMPLE: iteration 1
AMI: Creating addressing and weights between 29 source faces and 29 target faces
AMI: Patch source sum(weights) min:0.9996512037050764 max:1.005739180216314 average:1.002688862739214
AMI: Patch target sum(weights) min:0.9996512037050743 max:1.005739180216316 average:1.002688862739215
DICPBiCGStab:  Solving for pcorr, Initial residual = 0.9999999999999196, Final residual = 0.09566147893031002, No Iterations 21
DICPBiCGStab:  Solving for pcorr, Initial residual = 0.09272671371117441, Final residual = 9.746818259286081e-07, No Iterations 45
time step continuity errors : sum local = 3.581002825561513e-13, global = 2.065437083860975e-14, cumulative = -0.01307531846721767
smoothSolver:  Solving for Ux, Initial residual = 0.002474993562955151, Final residual = 2.779497696100688e-05, No Iterations 3
smoothSolver:  Solving for Uy, Initial residual = 0.004097647491333343, Final residual = 4.828264544708315e-05, No Iterations 3
DICPBiCGStab:  Solving for p, Initial residual = 0.05334017619705619, Final residual = 0.00387450081066379, No Iterations 1
DICPBiCGStab:  Solving for p, Initial residual = 0.00519324708853615, Final residual = 0.0004955532561366074, No Iterations 10
time step continuity errors : sum local = 2.027530069729587e-05, global = 1.688027803899257e-05, cumulative = -0.01305843818917868
DICPBiCGStab:  Solving for p, Initial residual = 0.01694079898659751, Final residual = 0.001300175765387022, No Iterations 1
DICPBiCGStab:  Solving for p, Initial residual = 0.001669200022876545, Final residual = 5.358748131192465e-07, No Iterations 28
time step continuity errors : sum local = 2.193840424648126e-08, global = 6.440327012288461e-09, cumulative = -0.01305843174885167
PIMPLE: iteration 2
smoothSolver:  Solving for Ux, Initial residual = 0.003728275106338497, Final residual = 6.994305843468364e-07, No Iterations 14
smoothSolver:  Solving for Uy, Initial residual = 0.007263966982638263, Final residual = 9.235623815394761e-07, No Iterations 15
DICPBiCGStab:  Solving for p, Initial residual = 0.04248060387869119, Final residual = 0.003726030725840757, No Iterations 1
DICPBiCGStab:  Solving for p, Initial residual = 0.005282214723735764, Final residual = 0.0005214475596518009, No Iterations 10
time step continuity errors : sum local = 2.555618090689152e-05, global = -1.865817066800404e-05, cumulative = -0.01307708991951967
DICPBiCGStab:  Solving for p, Initial residual = 0.01231351181429001, Final residual = 0.001150885542149801, No Iterations 4
DICPBiCGStab:  Solving for p, Initial residual = 0.002439553822911423, Final residual = 7.736104797835059e-07, No Iterations 29
time step continuity errors : sum local = 3.775099355215121e-08, global = -3.992683636221445e-09, cumulative = -0.01307709391220331
ExecutionTime = 0.31 s  ClockTime = 0 s

Myforces MyForces_Dir write:
    Sum of Myforce
        Total    : (0.03553275240244439 0.7071742863961553 8.432660509140807e-20)
        Pressure : (0.03518584736058197 0.7071641181526029 8.558020351335059e-20)
        Viscous  : (0.0003469050418624203 1.016824355234195e-05 -1.253598421942519e-21)


FORCE: Time to write Data at current Time:1.700000047683716

    Sum of moments
        Total    : (0.2872126095955491 -0.01443131451459695 -0.3326578679652553)
        Pressure : (0.2872084798529639 -0.01429042208641929 -0.332644510335828)
        Viscous  : (4.129742585175432e-06 -0.000140892428177661 -1.335762942728737e-05)



FORCE: Time to write Data at current Time:1.700000047683716


Courant Number mean: 9.356721509092329 max: 674.7279377305867
Time = 1.8

PIMPLE: iteration 1
AMI: Creating addressing and weights between 29 source faces and 29 target faces
AMI: Patch source sum(weights) min:0.9996512037050764 max:1.005739180216314 average:1.002688862739214
AMI: Patch target sum(weights) min:0.9996512037050743 max:1.005739180216316 average:1.002688862739215
DICPBiCGStab:  Solving for pcorr, Initial residual = 0.9999999999999459, Final residual = 0.09483424740025817, No Iterations 11
DICPBiCGStab:  Solving for pcorr, Initial residual = 0.2965159952439965, Final residual = 9.120898193961884e-07, No Iterations 46
time step continuity errors : sum local = 1.243185539582859e-13, global = -7.337856966603543e-15, cumulative = -0.01307709391221064
smoothSolver:  Solving for Ux, Initial residual = 0.002397768545752141, Final residual = 2.736381908776614e-05, No Iterations 3
smoothSolver:  Solving for Uy, Initial residual = 0.004088691063313709, Final residual = 5.255779275494213e-05, No Iterations 3
DICPBiCGStab:  Solving for p, Initial residual = 0.05327806606652596, Final residual = 0.00387510882853217, No Iterations 1
DICPBiCGStab:  Solving for p, Initial residual = 0.005176385399179829, Final residual = 0.0005156859085982598, No Iterations 9
time step continuity errors : sum local = 2.113205890607333e-05, global = 1.737808209765112e-05, cumulative = -0.01305971583011299
DICPBiCGStab:  Solving for p, Initial residual = 0.01698915931476043, Final residual = 0.001308310142172064, No Iterations 1
DICPBiCGStab:  Solving for p, Initial residual = 0.001665534427273099, Final residual = 9.58171173280061e-07, No Iterations 30
time step continuity errors : sum local = 3.920278399220038e-08, global = 9.681202065436194e-09, cumulative = -0.01305970614891093
PIMPLE: iteration 2
smoothSolver:  Solving for Ux, Initial residual = 0.003590970296818726, Final residual = 5.525877457921717e-07, No Iterations 14
smoothSolver:  Solving for Uy, Initial residual = 0.007240186768953195, Final residual = 9.923257632368704e-07, No Iterations 15
DICPBiCGStab:  Solving for p, Initial residual = 0.04269416385989643, Final residual = 0.00387343787709821, No Iterations 1
DICPBiCGStab:  Solving for p, Initial residual = 0.005430547122404673, Final residual = 0.0005259724416929153, No Iterations 10
time step continuity errors : sum local = 2.579400958943359e-05, global = -1.771346487276627e-05, cumulative = -0.01307741961378369
DICPBiCGStab:  Solving for p, Initial residual = 0.01267085418845033, Final residual = 0.001242725592991834, No Iterations 4
DICPBiCGStab:  Solving for p, Initial residual = 0.002537153038524466, Final residual = 9.835294867658309e-07, No Iterations 29
time step continuity errors : sum local = 4.806116787019225e-08, global = -2.618521073130103e-08, cumulative = -0.01307744579899442
ExecutionTime = 0.32 s  ClockTime = 0 s

Myforces MyForces_Dir write:
    Sum of Myforce
        Total    : (0.03559164801895254 0.7039677298396076 8.993921328090064e-20)
        Pressure : (0.03524635283687906 0.7039569209802805 9.118848397453546e-20)
        Viscous  : (0.0003452951820734811 1.080885932709989e-05 -1.24927069363482e-21)


FORCE: Time to write Data at current Time:1.799999952316284

    Sum of moments
        Total    : (0.2859102948845391 -0.01445523445065296 -0.3311957127579811)
        Pressure : (0.2859059049614977 -0.01431499585285341 -0.3311821838338246)
        Viscous  : (4.389923041331368e-06 -0.0001402385977995508 -1.352892415653133e-05)



FORCE: Time to write Data at current Time:1.799999952316284


Courant Number mean: 9.355987104459723 max: 674.0678917586965
Time = 1.9

PIMPLE: iteration 1
AMI: Creating addressing and weights between 29 source faces and 29 target faces
AMI: Patch source sum(weights) min:0.9996512037050764 max:1.005739180216314 average:1.002688862739214
AMI: Patch target sum(weights) min:0.9996512037050743 max:1.005739180216316 average:1.002688862739215
DICPBiCGStab:  Solving for pcorr, Initial residual = 0.9999999999999575, Final residual = 0.07697608615700731, No Iterations 22
DICPBiCGStab:  Solving for pcorr, Initial residual = 0.07646861528717341, Final residual = 1.21215235221974e-07, No Iterations 47
time step continuity errors : sum local = 1.152118379551311e-13, global = -1.076293266235462e-14, cumulative = -0.01307744579900518
smoothSolver:  Solving for Ux, Initial residual = 0.002270514072049038, Final residual = 2.680598690520144e-05, No Iterations 3
smoothSolver:  Solving for Uy, Initial residual = 0.00422243628530725, Final residual = 5.916665469202613e-05, No Iterations 3
DICPBiCGStab:  Solving for p, Initial residual = 0.05362676227163676, Final residual = 0.003980881892638307, No Iterations 1
DICPBiCGStab:  Solving for p, Initial residual = 0.005231079456448251, Final residual = 0.0005011771523085277, No Iterations 9
time step continuity errors : sum local = 2.059186928937239e-05, global = 1.653553060311624e-05, cumulative = -0.01306091026840207
DICPBiCGStab:  Solving for p, Initial residual = 0.01698578208749518, Final residual = 0.001301002663287277, No Iterations 1
DICPBiCGStab:  Solving for p, Initial residual = 0.001654346008695351, Final residual = 8.973411138530328e-07, No Iterations 34
time step continuity errors : sum local = 3.675426678315854e-08, global = 8.379971535582754e-09, cumulative = -0.01306090188843053
PIMPLE: iteration 2
smoothSolver:  Solving for Ux, Initial residual = 0.003338426152805119, Final residual = 8.962255266221472e-07, No Iterations 13
smoothSolver:  Solving for Uy, Initial residual = 0.007324644843458987, Final residual = 7.022154809245202e-07, No Iterations 16
DICPBiCGStab:  Solving for p, Initial residual = 0.04280382212924293, Final residual = 0.004036315055687281, No Iterations 1
DICPBiCGStab:  Solving for p, Initial residual = 0.005576541370408714, Final residual = 0.0005548458254350965, No Iterations 9
time step continuity errors : sum local = 2.722839864729516e-05, global = -1.592022926143919e-05, cumulative = -0.01307682211769197
DICPBiCGStab:  Solving for p, Initial residual = 0.01262865100574534, Final residual = 0.001259477529233959, No Iterations 4
DICPBiCGStab:  Solving for p, Initial residual = 0.002622884421898349, Final residual = 9.250484837270218e-07, No Iterations 29
time step continuity errors : sum local = 4.530128884156329e-08, global = 5.05064545127408e-10, cumulative = -0.01307682161262743
ExecutionTime = 0.34 s  ClockTime = 0 s

Myforces MyForces_Dir write:
    Sum of Myforce
        Total    : (0.03534223869270636 0.6990226849732956 1.039499137146336e-19)
        Pressure : (0.03499815233635914 0.6990114899053794 1.052097526424561e-19)
        Viscous  : (0.0003440863563472247 1.119506791618873e-05 -1.25983892782247e-21)


FORCE: Time to write Data at current Time:1.899999976158142

    Sum of moments
        Total    : (0.2839019084542879 -0.01435393904890172 -0.3291948377705565)
        Pressure : (0.2838973616760288 -0.01421419140502691 -0.3291812268655007)
        Viscous  : (4.546778259138701e-06 -0.0001397476438748067 -1.361090505576334e-05)



FORCE: Time to write Data at current Time:1.899999976158142


Courant Number mean: 9.355390385681666 max: 673.3530628272679
Time = 2

PIMPLE: iteration 1
AMI: Creating addressing and weights between 29 source faces and 29 target faces
AMI: Patch source sum(weights) min:0.9996512037050764 max:1.005739180216314 average:1.002688862739214
AMI: Patch target sum(weights) min:0.9996512037050743 max:1.005739180216316 average:1.002688862739215
DICPBiCGStab:  Solving for pcorr, Initial residual = 0.9999999999999549, Final residual = 0.07546594038966342, No Iterations 10
DICPBiCGStab:  Solving for pcorr, Initial residual = 0.3053915763907343, Final residual = 4.151145928065592e-07, No Iterations 45
time step continuity errors : sum local = 4.981735366059962e-14, global = -2.631286948801506e-14, cumulative = -0.01307682161265374
smoothSolver:  Solving for Ux, Initial residual = 0.002112018075794488, Final residual = 2.681176043605149e-05, No Iterations 3
smoothSolver:  Solving for Uy, Initial residual = 0.004459894212938669, Final residual = 6.577847818026809e-05, No Iterations 3
DICPBiCGStab:  Solving for p, Initial residual = 0.05341915775377013, Final residual = 0.003806241337475285, No Iterations 1
DICPBiCGStab:  Solving for p, Initial residual = 0.005072700787076312, Final residual = 0.000490152543672752, No Iterations 8
time step continuity errors : sum local = 2.016700208406245e-05, global = 1.514182819795247e-05, cumulative = -0.01306167978445578
DICPBiCGStab:  Solving for p, Initial residual = 0.01680232974697914, Final residual = 0.001265259051102589, No Iterations 1
DICPBiCGStab:  Solving for p, Initial residual = 0.001602971736326382, Final residual = 3.538698875269604e-07, No Iterations 29
time step continuity errors : sum local = 1.447932076357361e-08, global = -2.220002445517613e-09, cumulative = -0.01306168200445823
PIMPLE: iteration 2
smoothSolver:  Solving for Ux, Initial residual = 0.003120729079524436, Final residual = 8.127303441395871e-07, No Iterations 13
smoothSolver:  Solving for Uy, Initial residual = 0.00718267940260216, Final residual = 7.656456124830977e-07, No Iterations 16
DICPBiCGStab:  Solving for p, Initial residual = 0.04296539561043677, Final residual = 0.003925262738341937, No Iterations 1
DICPBiCGStab:  Solving for p, Initial residual = 0.005469244849213736, Final residual = 0.0005106223140093754, No Iterations 9
time step continuity errors : sum local = 2.499886815503692e-05, global = -1.245062752198555e-05, cumulative = -0.01307413263198022
DICPBiCGStab:  Solving for p, Initial residual = 0.01234407706409195, Final residual = 0.00118610501522591, No Iterations 4
DICPBiCGStab:  Solving for p, Initial residual = 0.002491604626440607, Final residual = 6.104926788531084e-07, No Iterations 30
time step continuity errors : sum local = 2.990546065081267e-08, global = -5.050889772158039e-09, cumulative = -0.01307413768286999
ExecutionTime = 0.36 s  ClockTime = 0 s

Myforces MyForces_Dir write:
    Sum of Myforce
        Total    : (0.03525867695793527 0.6947084289390059 1.149016191067096e-19)
        Pressure : (0.03491538738998339 0.6946970397695011 1.161527374403866e-19)
        Viscous  : (0.000343289567951875 1.138916950473585e-05 -1.251118333677087e-21)


FORCE: Time to write Data at current Time:2

    Sum of moments
        Total    : (0.2821497113539291 -0.01432000118610378 -0.3273656722101727)
        Pressure : (0.2821450857430189 -0.01418057715081985 -0.3273520409292127)
        Viscous  : (4.625610910220187e-06 -0.0001394240352839315 -1.363128096001951e-05)



FORCE: Time to write Data at current Time:2


Courant Number mean: 9.354923995825583 max: 672.7690792753041
Time = 2.1

PIMPLE: iteration 1
AMI: Creating addressing and weights between 29 source faces and 29 target faces
AMI: Patch source sum(weights) min:0.9996512037050764 max:1.005739180216314 average:1.002688862739214
AMI: Patch target sum(weights) min:0.9996512037050743 max:1.005739180216316 average:1.002688862739215
DICPBiCGStab:  Solving for pcorr, Initial residual = 0.9999999999999317, Final residual = 0.09281159447492904, No Iterations 11
DICPBiCGStab:  Solving for pcorr, Initial residual = 0.2881652987588478, Final residual = 9.408524284762941e-07, No Iterations 44
time step continuity errors : sum local = 1.079134573802187e-13, global = -5.829901848156787e-14, cumulative = -0.01307413768292829
smoothSolver:  Solving for Ux, Initial residual = 0.001897092088160898, Final residual = 9.406409130252675e-05, No Iterations 2
smoothSolver:  Solving for Uy, Initial residual = 0.004466910711490101, Final residual = 6.719552294717226e-05, No Iterations 3
DICPBiCGStab:  Solving for p, Initial residual = 0.05306728343942672, Final residual = 0.00369865999323737, No Iterations 1
DICPBiCGStab:  Solving for p, Initial residual = 0.004961301297715187, Final residual = 0.0004656526667658044, No Iterations 7
time step continuity errors : sum local = 1.918936985063521e-05, global = 1.273273882379574e-05, cumulative = -0.01306140494410449
DICPBiCGStab:  Solving for p, Initial residual = 0.01671373988447673, Final residual = 0.001183591178309707, No Iterations 1
DICPBiCGStab:  Solving for p, Initial residual = 0.001515022410293941, Final residual = 9.288433687794605e-07, No Iterations 29
time step continuity errors : sum local = 3.804333749098975e-08, global = 6.76700953213557e-09, cumulative = -0.01306139817709496
PIMPLE: iteration 2
smoothSolver:  Solving for Ux, Initial residual = 0.002936193038689165, Final residual = 7.635587582522728e-07, No Iterations 13
smoothSolver:  Solving for Uy, Initial residual = 0.007267858890919166, Final residual = 7.932604137832585e-07, No Iterations 16
DICPBiCGStab:  Solving for p, Initial residual = 0.04301024477509392, Final residual = 0.003841962639677985, No Iterations 1
DICPBiCGStab:  Solving for p, Initial residual = 0.005377999451175789, Final residual = 0.0004726361250047726, No Iterations 9
time step continuity errors : sum local = 2.307554168763149e-05, global = -1.019779732069796e-05, cumulative = -0.01307159597441566
DICPBiCGStab:  Solving for p, Initial residual = 0.01227489533198708, Final residual = 0.001129317464683411, No Iterations 4
DICPBiCGStab:  Solving for p, Initial residual = 0.002433969619575571, Final residual = 4.879094708320099e-07, No Iterations 30
time step continuity errors : sum local = 2.389205148514725e-08, global = -3.872145221725416e-09, cumulative = -0.01307159984656088
ExecutionTime = 0.38 s  ClockTime = 0 s

Myforces MyForces_Dir write:
    Sum of Myforce
        Total    : (0.03525386408702968 0.6908742758735325 1.235319473767393e-19)
        Pressure : (0.03491124368175097 0.6908628895655614 1.247846290566089e-19)
        Viscous  : (0.0003426204052787115 1.138630797101038e-05 -1.252681679869605e-21)


FORCE: Time to write Data at current Time:2.099999904632568

    Sum of moments
        Total    : (0.2805925038469433 -0.01431804648096386 -0.3256908500369104)
        Pressure : (0.2805878793982198 -0.01417889422020751 -0.3256772458091117)
        Viscous  : (4.62444872349401e-06 -0.0001391522607563498 -1.360422779868202e-05)



FORCE: Time to write Data at current Time:2.099999904632568


Courant Number mean: 9.354556701268187 max: 672.3084683394933
Time = 2.2

PIMPLE: iteration 1
AMI: Creating addressing and weights between 29 source faces and 29 target faces
AMI: Patch source sum(weights) min:0.9996512037050764 max:1.005739180216314 average:1.002688862739214
AMI: Patch target sum(weights) min:0.9996512037050743 max:1.005739180216316 average:1.002688862739215
DICPBiCGStab:  Solving for pcorr, Initial residual = 0.9999999999999145, Final residual = 0.09371609159409341, No Iterations 10
DICPBiCGStab:  Solving for pcorr, Initial residual = 0.3069321338704177, Final residual = 5.169201906960267e-07, No Iterations 47
time step continuity errors : sum local = 4.310308174679872e-14, global = -4.375199464073902e-15, cumulative = -0.01307159984656526
smoothSolver:  Solving for Ux, Initial residual = 0.001723402429660456, Final residual = 8.540475787283695e-05, No Iterations 2
smoothSolver:  Solving for Uy, Initial residual = 0.004477769814835022, Final residual = 6.476151966552002e-05, No Iterations 3
DICPBiCGStab:  Solving for p, Initial residual = 0.05287906141400262, Final residual = 0.003572322342664378, No Iterations 1
DICPBiCGStab:  Solving for p, Initial residual = 0.004835605566774624, Final residual = 0.0004255967935907565, No Iterations 7
time step continuity errors : sum local = 1.752509098266964e-05, global = 9.908771165409554e-06, cumulative = -0.01306169107539985
DICPBiCGStab:  Solving for p, Initial residual = 0.01662811177953621, Final residual = 0.001145037400576164, No Iterations 1
DICPBiCGStab:  Solving for p, Initial residual = 0.001468661973598355, Final residual = 9.900406050247074e-07, No Iterations 29
time step continuity errors : sum local = 4.049778166990899e-08, global = -8.568724321127005e-11, cumulative = -0.01306169116108709
PIMPLE: iteration 2
smoothSolver:  Solving for Ux, Initial residual = 0.002729116764309179, Final residual = 6.876223744157833e-07, No Iterations 13
smoothSolver:  Solving for Uy, Initial residual = 0.007200190901101412, Final residual = 7.759782758955819e-07, No Iterations 16
DICPBiCGStab:  Solving for p, Initial residual = 0.04281930495615583, Final residual = 0.003652222658119112, No Iterations 1
DICPBiCGStab:  Solving for p, Initial residual = 0.005193315840034687, Final residual = 0.0005085532064131612, No Iterations 8
time step continuity errors : sum local = 2.474005405337663e-05, global = -6.990969081100103e-06, cumulative = -0.01306868213016819
DICPBiCGStab:  Solving for p, Initial residual = 0.01207083962209723, Final residual = 0.001199720640014692, No Iterations 3
DICPBiCGStab:  Solving for p, Initial residual = 0.002254293858976451, Final residual = 9.985404173037636e-07, No Iterations 32
time step continuity errors : sum local = 4.882860255382939e-08, global = 2.905179119489662e-09, cumulative = -0.01306867922498907
[...]
DICPBiCGStab:  Solving for p, Initial residual = 0.01856567751994271, Final residual = 0.00137235936522947, No Iterations 1
DICPBiCGStab:  Solving for p, Initial residual = 0.001782658015253443, Final residual = 7.309371773899916e-07, No Iterations 28
time step continuity errors : sum local = 2.64478033868965e-08, global = -9.464073346001019e-09, cumulative = -0.01180802583565827
PIMPLE: iteration 2
smoothSolver:  Solving for Ux, Initial residual = 0.002457057122249277, Final residual = 5.976640163403505e-07, No Iterations 14
smoothSolver:  Solving for Uy, Initial residual = 0.008939585059413573, Final residual = 7.875450125500843e-07, No Iterations 15
DICPBiCGStab:  Solving for p, Initial residual = 0.04805265492092215, Final residual = 0.003750051580212686, No Iterations 2
DICPBiCGStab:  Solving for p, Initial residual = 0.00562336245180241, Final residual = 0.0005589042873111916, No Iterations 9
time step continuity errors : sum local = 2.360888570364728e-05, global = 1.987919127187152e-05, cumulative = -0.0117881466443864
DICPBiCGStab:  Solving for p, Initial residual = 0.0128278829398511, Final residual = 0.001236662875234759, No Iterations 4
DICPBiCGStab:  Solving for p, Initial residual = 0.002714650168129527, Final residual = 9.960877369117995e-07, No Iterations 28
time step continuity errors : sum local = 4.309570472144032e-08, global = 1.301609816020363e-08, cumulative = -0.01178813362828824
ExecutionTime = 10.32 s  ClockTime = 11 s

Myforces MyForces_Dir write:
    Sum of Myforce
        Total    : (0.03213499945760626 0.4797553576923847 1.136497247480688e-18)
        Pressure : (0.03181186999539699 0.4797445227707187 1.142160604579562e-18)
        Viscous  : (0.0003231294622092689 1.083492166600717e-05 -5.663357098873298e-21)


FORCE: Time to write Data at current Time:59.5

    Sum of moments
        Total    : (0.1948484141759161 -0.01305134707400869 -0.227075753842913)
        Pressure : (0.1948440136678853 -0.01292011088815798 -0.2270630939697051)
        Viscous  : (4.400508030793961e-06 -0.0001312361858507121 -1.265987320790438e-05)



FORCE: Time to write Data at current Time:59.5


Courant Number mean: 9.352642041072583 max: 534.102160839159
Time = 59.6

PIMPLE: iteration 1
AMI: Creating addressing and weights between 29 source faces and 29 target faces
AMI: Patch source sum(weights) min:1.000644563597669 max:1.005244843785254 average:1.002938097331122
AMI: Patch target sum(weights) min:1.000644563597672 max:1.005244843785251 average:1.002938097331123
DICPBiCGStab:  Solving for pcorr, Initial residual = 0.9999999999999526, Final residual = 0.09409105017079007, No Iterations 11
DICPBiCGStab:  Solving for pcorr, Initial residual = 0.2671181784709247, Final residual = 6.689884769588565e-07, No Iterations 46
time step continuity errors : sum local = 1.148310556511094e-13, global = 1.198846519151236e-14, cumulative = -0.01178813362827625
smoothSolver:  Solving for Ux, Initial residual = 0.001614398586224825, Final residual = 6.553960072349632e-05, No Iterations 2
smoothSolver:  Solving for Uy, Initial residual = 0.005593900935740377, Final residual = 7.660989867037275e-05, No Iterations 3
DICPBiCGStab:  Solving for p, Initial residual = 0.0569492765912613, Final residual = 0.004512144488483629, No Iterations 1
DICPBiCGStab:  Solving for p, Initial residual = 0.005711050461326962, Final residual = 0.0005688316397137759, No Iterations 7
time step continuity errors : sum local = 2.107188846818625e-05, global = -1.978636158742759e-05, cumulative = -0.01180791998986368
DICPBiCGStab:  Solving for p, Initial residual = 0.01843113995346684, Final residual = 0.001440183361741029, No Iterations 1
DICPBiCGStab:  Solving for p, Initial residual = 0.001855738440217509, Final residual = 9.770730592726221e-07, No Iterations 28
time step continuity errors : sum local = 3.559840324951131e-08, global = -5.648825365430343e-09, cumulative = -0.01180792563868905
PIMPLE: iteration 2
smoothSolver:  Solving for Ux, Initial residual = 0.00265698086503815, Final residual = 6.049584773571477e-07, No Iterations 14
smoothSolver:  Solving for Uy, Initial residual = 0.008788459563196627, Final residual = 8.081559685099939e-07, No Iterations 15
DICPBiCGStab:  Solving for p, Initial residual = 0.04790853062870611, Final residual = 0.003758090801086097, No Iterations 2
DICPBiCGStab:  Solving for p, Initial residual = 0.005600911078369973, Final residual = 0.0005317904276580416, No Iterations 19
time step continuity errors : sum local = 2.248697880390449e-05, global = -1.029682002642026e-06, cumulative = -0.01180895532069169
DICPBiCGStab:  Solving for p, Initial residual = 0.01312333932323818, Final residual = 0.001310287049401926, No Iterations 4
DICPBiCGStab:  Solving for p, Initial residual = 0.002554005044448967, Final residual = 5.275633500094177e-07, No Iterations 31
time step continuity errors : sum local = 2.353238430243661e-08, global = 1.165320553250313e-08, cumulative = -0.01180894366748616
ExecutionTime = 10.34 s  ClockTime = 11 s

Myforces MyForces_Dir write:
    Sum of Myforce
        Total    : (0.03216045929187741 0.4800751935632484 1.138880647356157e-18)
        Pressure : (0.03183778960255102 0.4800644493062938 1.144545251814274e-18)
        Viscous  : (0.0003226696893263922 1.074425695463737e-05 -5.664604458117289e-21)


FORCE: Time to write Data at current Time:59.59999847412109

    Sum of moments
        Total    : (0.1949783126986426 -0.01306168736151852 -0.2271642518728647)
        Pressure : (0.194973949013286 -0.01293063790837579 -0.2271516139664093)
        Viscous  : (4.363685356593736e-06 -0.0001310494531427325 -1.263790645539501e-05)



FORCE: Time to write Data at current Time:59.59999847412109


Courant Number mean: 9.352601323864338 max: 534.094914185705
Time = 59.7

PIMPLE: iteration 1
AMI: Creating addressing and weights between 29 source faces and 29 target faces
AMI: Patch source sum(weights) min:1.000644563597669 max:1.005244843785254 average:1.002938097331122
AMI: Patch target sum(weights) min:1.000644563597672 max:1.005244843785251 average:1.002938097331123
DICPBiCGStab:  Solving for pcorr, Initial residual = 0.9999999999999132, Final residual = 0.08224527745072654, No Iterations 18
DICPBiCGStab:  Solving for pcorr, Initial residual = 0.06178572656903435, Final residual = 9.694461019826067e-07, No Iterations 44
time step continuity errors : sum local = 5.44176905834717e-13, global = -4.716280775653292e-14, cumulative = -0.01180894366753332
smoothSolver:  Solving for Ux, Initial residual = 0.00143303303384068, Final residual = 6.32776029325032e-05, No Iterations 2
smoothSolver:  Solving for Uy, Initial residual = 0.005582415187763368, Final residual = 6.99017841109581e-05, No Iterations 3
DICPBiCGStab:  Solving for p, Initial residual = 0.05849785457649935, Final residual = 0.004646815536138398, No Iterations 1
DICPBiCGStab:  Solving for p, Initial residual = 0.005865685545708344, Final residual = 0.000528130263343592, No Iterations 6
time step continuity errors : sum local = 1.926966479264809e-05, global = -1.019278622150845e-06, cumulative = -0.01180996294615547
DICPBiCGStab:  Solving for p, Initial residual = 0.01856936755336231, Final residual = 0.001352407075179415, No Iterations 1
DICPBiCGStab:  Solving for p, Initial residual = 0.001774976387612949, Final residual = 7.041262839489971e-07, No Iterations 30
time step continuity errors : sum local = 2.565791099554655e-08, global = -3.831918481460048e-09, cumulative = -0.01180996677807395
PIMPLE: iteration 2
smoothSolver:  Solving for Ux, Initial residual = 0.002283859056281336, Final residual = 5.931237375441495e-07, No Iterations 14
smoothSolver:  Solving for Uy, Initial residual = 0.008518929714738445, Final residual = 8.794712728287331e-07, No Iterations 15
DICPBiCGStab:  Solving for p, Initial residual = 0.04716803075852742, Final residual = 0.004643766694713988, No Iterations 1
DICPBiCGStab:  Solving for p, Initial residual = 0.005984132054875911, Final residual = 0.000582532609306509, No Iterations 8
time step continuity errors : sum local = 2.482455527158361e-05, global = 9.943674241662938e-06, cumulative = -0.01180002310383229
DICPBiCGStab:  Solving for p, Initial residual = 0.01306414629506949, Final residual = 0.001269548697204362, No Iterations 4
DICPBiCGStab:  Solving for p, Initial residual = 0.002650950369571538, Final residual = 7.138506252803091e-07, No Iterations 27
time step continuity errors : sum local = 3.094531379155046e-08, global = 8.259874379168557e-09, cumulative = -0.01180001484395791
ExecutionTime = 10.35 s  ClockTime = 11 s

Myforces MyForces_Dir write:
    Sum of Myforce
        Total    : (0.03235793427451954 0.4807203771362428 1.136435816445438e-18)
        Pressure : (0.03203584309335065 0.4807097785085304 1.142100176256525e-18)
        Viscous  : (0.0003220911811688909 1.059862771234804e-05 -5.664359811086443e-21)


FORCE: Time to write Data at current Time:59.70000076293945

    Sum of moments
        Total    : (0.1952403483258318 -0.01314189008690822 -0.2274244054769663)
        Pressure : (0.1952360437865097 -0.01301107558975976 -0.2274118030645944)
        Viscous  : (4.304539322135253e-06 -0.0001308144971484542 -1.26024123719265e-05)



FORCE: Time to write Data at current Time:59.70000076293945


Courant Number mean: 9.352615066438061 max: 534.116956264528
Time = 59.8

PIMPLE: iteration 1
AMI: Creating addressing and weights between 29 source faces and 29 target faces
AMI: Patch source sum(weights) min:1.000644563597669 max:1.005244843785254 average:1.002938097331122
AMI: Patch target sum(weights) min:1.000644563597672 max:1.005244843785251 average:1.002938097331123
DICPBiCGStab:  Solving for pcorr, Initial residual = 0.9999999999999341, Final residual = 0.09837000499254847, No Iterations 18
DICPBiCGStab:  Solving for pcorr, Initial residual = 0.08291397972450308, Final residual = 7.431625392387175e-07, No Iterations 42
time step continuity errors : sum local = 2.04483334346083e-13, global = 2.316061869349483e-14, cumulative = -0.01180001484393475
smoothSolver:  Solving for Ux, Initial residual = 0.00145295362230975, Final residual = 6.011797896751202e-05, No Iterations 2
smoothSolver:  Solving for Uy, Initial residual = 0.005664572014877857, Final residual = 8.030609850327856e-05, No Iterations 3
DICPBiCGStab:  Solving for p, Initial residual = 0.05723990519220602, Final residual = 0.00442575696511243, No Iterations 1
DICPBiCGStab:  Solving for p, Initial residual = 0.005644769457877551, Final residual = 0.000488626420420765, No Iterations 7
time step continuity errors : sum local = 1.807694250206193e-05, global = -1.37608219690562e-05, cumulative = -0.01181377566590381
DICPBiCGStab:  Solving for p, Initial residual = 0.01868041138181306, Final residual = 0.001385638650294753, No Iterations 1
DICPBiCGStab:  Solving for p, Initial residual = 0.00178537254114244, Final residual = 9.723819444918082e-07, No Iterations 28
time step continuity errors : sum local = 3.542914568262601e-08, global = -6.528449804192203e-09, cumulative = -0.01181378219435361
PIMPLE: iteration 2
smoothSolver:  Solving for Ux, Initial residual = 0.002454558211196571, Final residual = 5.890755750631362e-07, No Iterations 14
smoothSolver:  Solving for Uy, Initial residual = 0.008757709696517756, Final residual = 9.08523915519154e-07, No Iterations 15
DICPBiCGStab:  Solving for p, Initial residual = 0.04770064399572114, Final residual = 0.003755783310338138, No Iterations 2
DICPBiCGStab:  Solving for p, Initial residual = 0.005573125100132358, Final residual = 0.0005466079462539331, No Iterations 9
time step continuity errors : sum local = 2.319854870519645e-05, global = 2.114478234688098e-05, cumulative = -0.01179263741200673
DICPBiCGStab:  Solving for p, Initial residual = 0.01309159256073044, Final residual = 0.001268373724832571, No Iterations 4
DICPBiCGStab:  Solving for p, Initial residual = 0.002683809738819655, Final residual = 7.50380144594445e-07, No Iterations 28
time step continuity errors : sum local = 3.257324685373745e-08, global = 7.344686702296305e-09, cumulative = -0.01179263006732003
ExecutionTime = 10.37 s  ClockTime = 11 s

Myforces MyForces_Dir write:
    Sum of Myforce
        Total    : (0.03235034923931543 0.4809958021282344 1.136863839917428e-18)
        Pressure : (0.0320285620468935 0.4809853130126158 1.142530980949765e-18)
        Viscous  : (0.0003217871924219269 1.048911561855989e-05 -5.667141032336195e-21)


FORCE: Time to write Data at current Time:59.79999923706055

    Sum of moments
        Total    : (0.1953522097611518 -0.01313880949164796 -0.2275791973208455)
        Pressure : (0.1953479496992023 -0.0130081184568524 -0.2275666248214294)
        Viscous  : (4.260061949521131e-06 -0.0001306910347955622 -1.257249941604403e-05)



FORCE: Time to write Data at current Time:59.79999923706055


Courant Number mean: 9.352601189262915 max: 534.1289184663485
Time = 59.9

PIMPLE: iteration 1
AMI: Creating addressing and weights between 29 source faces and 29 target faces
AMI: Patch source sum(weights) min:1.000644563597669 max:1.005244843785254 average:1.002938097331122
AMI: Patch target sum(weights) min:1.000644563597672 max:1.005244843785251 average:1.002938097331123
DICPBiCGStab:  Solving for pcorr, Initial residual = 0.9999999999999373, Final residual = 0.08940859499260771, No Iterations 22
DICPBiCGStab:  Solving for pcorr, Initial residual = 0.09667543180621067, Final residual = 3.705750194701852e-07, No Iterations 43
time step continuity errors : sum local = 1.169459786259892e-13, global = 2.187678731331189e-14, cumulative = -0.01179263006729815
smoothSolver:  Solving for Ux, Initial residual = 0.001616050306685202, Final residual = 6.675635328795927e-05, No Iterations 2
smoothSolver:  Solving for Uy, Initial residual = 0.00554173159130161, Final residual = 7.51755084297746e-05, No Iterations 3
DICPBiCGStab:  Solving for p, Initial residual = 0.05700505864035373, Final residual = 0.004507786431478818, No Iterations 1
DICPBiCGStab:  Solving for p, Initial residual = 0.005719392047471016, Final residual = 0.00057093312114173, No Iterations 9
time step continuity errors : sum local = 2.120893830090117e-05, global = -1.773561503773917e-05, cumulative = -0.01181036568233589
DICPBiCGStab:  Solving for p, Initial residual = 0.01870862900481997, Final residual = 0.00148624823317824, No Iterations 1
DICPBiCGStab:  Solving for p, Initial residual = 0.001878910631823621, Final residual = 9.089987768096069e-07, No Iterations 25
time step continuity errors : sum local = 3.309948370047615e-08, global = -1.465011867619747e-08, cumulative = -0.01181038033245457
PIMPLE: iteration 2
smoothSolver:  Solving for Ux, Initial residual = 0.00249168700353458, Final residual = 5.877943181590199e-07, No Iterations 14
smoothSolver:  Solving for Uy, Initial residual = 0.008539180066672316, Final residual = 8.999179432717646e-07, No Iterations 15
DICPBiCGStab:  Solving for p, Initial residual = 0.0477259932673124, Final residual = 0.003646142424673137, No Iterations 2
DICPBiCGStab:  Solving for p, Initial residual = 0.005453800827943308, Final residual = 0.0003312315447763449, No Iterations 22
time step continuity errors : sum local = 1.407004692591956e-05, global = 5.287310936990538e-06, cumulative = -0.01180509302151758
DICPBiCGStab:  Solving for p, Initial residual = 0.01308276639208024, Final residual = 0.001138528339117147, No Iterations 4
DICPBiCGStab:  Solving for p, Initial residual = 0.002431723841193201, Final residual = 9.499229006506572e-07, No Iterations 28
time step continuity errors : sum local = 4.165381523073109e-08, global = -3.36996360464729e-08, cumulative = -0.01180512672115362
ExecutionTime = 10.39 s  ClockTime = 11 s

Myforces MyForces_Dir write:
    Sum of Myforce
        Total    : (0.03251668116345279 0.483118484607612 1.137850645473196e-18)
        Pressure : (0.03219485524790695 0.4831080163435436 1.143524855479024e-18)
        Viscous  : (0.0003218259155458451 1.046826406842082e-05 -5.674210005828108e-21)


FORCE: Time to write Data at current Time:59.90000152587891

    Sum of moments
        Total    : (0.1962143185594677 -0.01320636373804738 -0.2283357879588845)
        Pressure : (0.1962100669661916 -0.01307565697619601 -0.2283232214359558)
        Viscous  : (4.251593276034615e-06 -0.0001307067618513759 -1.25665229286323e-05)



FORCE: Time to write Data at current Time:59.90000152587891


Courant Number mean: 9.35259240093294 max: 534.1559057032152
Time = 60

PIMPLE: iteration 1
AMI: Creating addressing and weights between 29 source faces and 29 target faces
AMI: Patch source sum(weights) min:1.000644563597669 max:1.005244843785254 average:1.002938097331122
AMI: Patch target sum(weights) min:1.000644563597672 max:1.005244843785251 average:1.002938097331123
DICPBiCGStab:  Solving for pcorr, Initial residual = 0.9999999999999509, Final residual = 0.09831102044090216, No Iterations 21
DICPBiCGStab:  Solving for pcorr, Initial residual = 0.05141019206356462, Final residual = 7.351066595197763e-07, No Iterations 43
time step continuity errors : sum local = 1.173121568842928e-12, global = -5.243090276939899e-13, cumulative = -0.01180512672167793
smoothSolver:  Solving for Ux, Initial residual = 0.001245761741337379, Final residual = 5.038932664744548e-05, No Iterations 2
smoothSolver:  Solving for Uy, Initial residual = 0.005383066532206625, Final residual = 7.449790191352135e-05, No Iterations 3
DICPBiCGStab:  Solving for p, Initial residual = 0.05732623303705705, Final residual = 0.00423721826496453, No Iterations 1
DICPBiCGStab:  Solving for p, Initial residual = 0.005471154192591051, Final residual = 0.0004883050800834689, No Iterations 7
time step continuity errors : sum local = 1.800515553502099e-05, global = -7.039846882317517e-06, cumulative = -0.01181216656856025
DICPBiCGStab:  Solving for p, Initial residual = 0.01860836840933194, Final residual = 0.001333075451364643, No Iterations 1
DICPBiCGStab:  Solving for p, Initial residual = 0.001742841772712966, Final residual = 2.834707381401747e-07, No Iterations 29
time step continuity errors : sum local = 1.031848851446266e-08, global = -3.482274256004564e-09, cumulative = -0.01181217005083451
PIMPLE: iteration 2
smoothSolver:  Solving for Ux, Initial residual = 0.002167943421352299, Final residual = 5.769173098727937e-07, No Iterations 14
smoothSolver:  Solving for Uy, Initial residual = 0.008614772059000827, Final residual = 9.56995559324046e-07, No Iterations 15
DICPBiCGStab:  Solving for p, Initial residual = 0.04741588981790108, Final residual = 0.004655302795389618, No Iterations 1
DICPBiCGStab:  Solving for p, Initial residual = 0.00598389829060563, Final residual = 0.0005962170049999945, No Iterations 8
time step continuity errors : sum local = 2.536036472315623e-05, global = 1.194692561331186e-05, cumulative = -0.01180022312522119
DICPBiCGStab:  Solving for p, Initial residual = 0.01276286400895451, Final residual = 0.001182288301563693, No Iterations 4
DICPBiCGStab:  Solving for p, Initial residual = 0.002577866283147562, Final residual = 6.550637409252462e-07, No Iterations 28
time step continuity errors : sum local = 2.84029745190657e-08, global = 1.596192830603701e-08, cumulative = -0.01180020716329289
ExecutionTime = 10.4 s  ClockTime = 11 s

Myforces MyForces_Dir write:
    Sum of Myforce
        Total    : (0.03254658375425794 0.483791743650215 1.137486900752197e-18)
        Pressure : (0.03222451252802652 0.4837813264032854 1.143160325024154e-18)
        Viscous  : (0.0003220712262314177 1.04172469296488e-05 -5.673424271956177e-21)


FORCE: Time to write Data at current Time:60

    Sum of moments
        Total    : (0.1964877567914278 -0.01321850841200404 -0.2286068096445889)
        Pressure : (0.1964835259183134 -0.01308770201937774 -0.2285942602212286)
        Viscous  : (4.230873114339413e-06 -0.000130806392626307 -1.254942336022361e-05)



FORCE: Time to write Data at current Time:60


End

